Geom Title=Existing Conditions
Program Version=4.10
Viewing Rectangle= 3253829.99 , 3266766.47 , 9977081.1 , 9966176.08 

River Reach=ALUM 006        ,Reach-1         
Reach XY= 75 
      3258829.99      9971176.08      3258894.99      9971176.08
      3258904.99      9971186.08      3258914.99      9971186.08
      3258944.99      9971216.08      3258994.99      9971216.08
      3259004.99      9971226.08      3259054.99      9971226.08
      3259134.99      9971306.08      3259144.99      9971306.08
      3259184.99      9971346.08       3259294.2      9971427.03
      3259415.73        9971493.      3259488.65      9971583.28
      3259596.28      9971670.09      3259616.83      9971699.76
      3259686.95      9971756.88      3259706.48      9971777.71
      3259735.12      9971820.68      3259765.07      9971864.95
      3259787.21      9971914.43      3259803.76      9971976.92
      3259818.46      9972023.81      3259853.61      9972056.36
      3259920.02       9972081.1      3260021.58      9972075.89
      3260132.26      9972068.08      3260196.48      9972046.08
      3260239.03      9972002.97      3260374.99      9971976.08
      3260404.99      9971946.08      3260484.99      9971946.08
      3260494.99      9971936.08      3260524.99      9971936.08
      3260534.99      9971926.08      3260544.99      9971926.08
      3260554.99      9971936.08      3260614.99      9971936.08
      3260634.99      9971916.08      3260654.99      9971916.08
      3260664.99      9971906.08      3260704.99      9971906.08
        3260782.      9971863.65      3260801.53      9971836.31
      3260828.48      9971810.98      3260864.99      9971796.08
      3260874.99      9971796.08      3260884.99      9971786.08
      3260934.99      9971786.08      3260944.99      9971776.08
      3261114.99      9971776.08      3261124.99      9971766.08
      3261144.99      9971766.08      3261154.99      9971756.08
      3261164.99      9971756.08      3261174.99      9971766.08
      3261194.99      9971766.08      3261214.99      9971786.08
      3261264.99      9971786.08      3261284.99      9971806.08
      3261294.99      9971806.08      3261304.99      9971816.08
      3261314.99      9971816.08      3261414.99      9971916.08
      3261414.99      9971926.08      3261454.99      9971966.08
      3261594.99      9971966.08      3261614.99      9971946.08
      3261624.99      9971946.08      3261665.24      9971943.17
      3261695.11      9971941.78      3261714.55       9971950.8
      3261731.91      9971962.61      3261754.83       9971988.3
      3261766.47       9972024.6
Rch Text X Y=3259004.58,9970538.09
Reverse River Text= 0 

Type RM Length L Ch R = 1 ,3369    ,433,433,433
BEGIN DESCRIPTION:
ALUM 006 6.0
END DESCRIPTION:
XS GIS Cut Line=3
      3258890.01      9971534.98        3259040.        9971235.
      3259339.97      9970935.03
Node Last Edited Time=May/04/2018 07:18:05
#Sta/Elev= 83 
    4652  452.22  4654.8  452.22  4660.4  451.72  4665.9  451.52  4674.3  451.04
  4682.7  450.45  4688.3  450.24  4705.1   449.1  4710.7  448.89  4719.1  448.36
  4727.4  447.99    4733  447.85  4741.4  447.44  4749.8  446.79  4755.4  446.51
  4763.8  446.05  4772.2  445.68  4777.8   445.5  4786.1   445.1  4794.5  444.83
  4800.1  444.28  4808.5  443.88  4816.9  443.32  4822.5  442.97  4830.9  442.34
  4839.2  442.15  4844.8  441.89  4853.2  441.45  4861.6  440.85  4867.2  440.61
  4875.6  440.43    4884  439.69  4889.6  439.73  4897.9  439.49  4906.3  439.39
  4911.9  438.93  4920.3  438.67  4928.7  437.91  4934.3  437.83  4937.6   437.8
    4951  437.68  4956.6  437.55    4965  437.33  4973.4  437.47    4979  437.37
  4984.6   437.5  4987.4   437.5  4990.9   437.5  4997.5  437.33    4998  437.23
    5002  437.23  5002.5  437.33  5015.7  438.39  5029.8  438.57    5044  438.85
  5054.4  439.12  5058.1  439.21  5072.2  438.77  5086.4  439.01  5100.5  439.66
  5114.7  440.25  5128.8  440.88  5142.9  441.56  5171.2  443.01  5185.4  443.79
  5199.5  444.73  5213.7   445.6  5227.8  446.28  5241.9  447.03  5256.1  447.81
  5270.2  448.68  5284.4  449.42  5298.5  450.27  5312.7  451.06  5326.8  452.26
  5340.9  453.31  5355.1  453.76  5369.2   454.6  5383.4  455.71  5386.7  455.94
  5397.5  456.68  5408.1  457.53  5411.6  457.53
#Mann= 6 ,-1 , 0 
    4652     .05       0  4937.6     .16       0  4997.5     .07       0
  5002.5     .16       0  5054.4     .05       0  5386.7      .1       0
Bank Sta=4906.3,5100.5
XS Rating Curve= 0 ,0
Exp/Cntr=0.3,0.1

Type RM Length L Ch R = 1 ,2936    ,475,475,475
BEGIN DESCRIPTION:
ALUM 006 5.0
END DESCRIPTION:
XS GIS Cut Line=3
      3259089.97      9971735.03        3259390.        9971485.
      3259540.02      9971184.97
Node Last Edited Time=May/04/2018 07:18:05
#Sta/Elev= 103 
  4604.2  454.21  4607.5  454.21  4611.4  453.48  4617.9     453  4625.7  452.43
  4632.2  452.32    4640  451.44  4646.5  451.22  4654.4  450.67  4660.9  450.32
  4668.7  449.72  4675.2  449.32  4682.3  448.87  4689.5  447.98    4696  447.52
  4703.8  446.91  4710.3  446.62  4718.1  445.97  4724.6  445.59  4732.5  445.05
    4739  444.79  4753.3  443.86  4760.4  443.45  4767.6  442.98  4774.1  442.62
  4781.9  442.24  4788.4  441.98  4796.2  441.55  4802.8  441.21  4810.6  440.83
  4817.1  440.54  4824.9  440.12  4831.4  439.91  4838.5  439.54  4845.7  439.14
  4852.2  438.94    4860  438.61  4866.5  438.26  4874.3  437.96  4880.9  437.59
  4888.7  437.31    4903  436.68  4909.5  436.46  4916.7  436.04  4923.8  435.64
  4930.3  435.22  4938.1  434.93  4944.6  434.58  4952.4  434.31    4959  434.01
  4966.8  433.63  4973.3  433.42  4981.1  433.26  4987.6  432.92  4991.5  432.89
  4994.8  432.89  4997.5  432.89    4998  432.79    5002  432.79  5002.5  432.89
  5003.1  433.18  5017.1  433.56  5025.5  433.89  5031.1  433.85  5039.5  434.05
  5047.9  434.51  5053.5  434.57  5061.8  435.07  5070.2  435.53  5075.8  435.62
  5084.2  435.96  5092.6  436.42  5098.2  436.37  5106.6  436.81  5114.9  437.27
  5120.5  437.31  5128.9   437.6  5137.3  437.99  5142.9  438.27  5151.3  438.88
  5159.7  439.38  5165.3  439.53  5173.6  439.99    5182   440.4  5187.6  440.48
    5196  441.07  5204.4   441.6    5210  441.72  5218.4  442.39  5226.7   443.2
  5232.3  443.42  5240.7  444.08  5249.1  444.68  5254.7  444.86  5263.1  445.51
  5271.5  446.12  5285.4  447.11  5293.8  447.68  5307.8  448.62  5316.2  449.14
  5321.8  449.45  5327.4  450.01  5330.2  450.01
#Mann= 3 ,-1 , 0 
  4604.2     .05       0  4997.5     .03       0  5002.5     .05       0
Bank Sta=4930.3,5070.2
XS Rating Curve= 0 ,0
Exp/Cntr=0.3,0.1

Type RM Length L Ch R = 1 ,2461    ,421,421,421
BEGIN DESCRIPTION:
ALUM 006 4.0
END DESCRIPTION:
XS GIS Cut Line=4
      3259390.02        9971885.        3259690.        9971835.
      3259928.71      9971675.86      3259960.56      9971588.81
Node Last Edited Time=May/04/2018 07:18:05
#Sta/Elev= 95 
  4650.4  442.95  4652.9  442.95  4660.5  442.27  4670.7  441.54  4678.3  440.76
  4683.3  440.55  4690.9   440.1  4701.1  439.68  4711.2   439.1  4721.3  438.54
  4731.5  437.88  4739.1   437.2  4744.2  437.05  4751.8  436.44  4761.9  435.72
    4772  435.18  4782.2  434.54  4792.3  434.17  4799.9  433.71    4805  433.82
  4812.6  433.28  4822.7  432.59  4832.9  432.16    4843  431.82  4860.7   431.2
  4865.8  431.28  4873.4  430.85  4883.5   430.5  4893.7  430.33  4903.8  430.17
    4914  430.09  4921.6  429.97  4926.6  430.01  4934.2  429.92  4944.4  429.64
    4952  429.66  4954.5  429.66  4957.5  429.66    4962  429.63    4968  429.75
    4977  429.72  4983.1  429.76  4990.6  429.63  4997.5  429.25    4998  429.15
    5002  429.15  5002.5  429.25  5004.1  429.34  5013.1  429.25  5019.1  429.46
  5026.6  429.42  5034.1  429.66  5040.1  429.74  5049.2  430.05  5055.2  430.18
  5062.7   430.5  5070.2  430.72  5076.2  430.94  5085.2  431.26  5091.2  431.39
  5098.7  431.82  5106.2  432.39  5112.3  432.33  5121.3  432.77  5127.3  432.88
  5134.8  433.27  5142.3  433.82  5148.3  433.97  5157.3  434.41  5163.3   434.5
  5170.8  434.99  5178.4  435.35  5184.4  435.45  5193.4  435.83  5199.4  435.95
  5206.9  436.44  5214.4  436.92  5220.4  436.95  5229.4  437.38  5235.4  437.36
  5239.2  437.71  5241.4  437.71  5244.5  437.71    5253  437.67    5259   437.7
  5264.3  438.03  5274.3  437.99  5284.2  437.91  5289.5  438.61  5295.6  438.39
  5306.2  438.26  5314.7  438.19  5320.1  438.74  5327.5  438.52  5334.1  438.38
#Mann= 3 ,-1 , 0 
  4650.4     .05       0  4997.5     .03       0  5002.5     .05       0
Bank Sta=4772,5178.4
XS Rating Curve= 0 ,0
Exp/Cntr=0.3,0.1

Type RM Length L Ch R = 1 ,2040    ,74,74,74
BEGIN DESCRIPTION:
Mapping XS 6bda7a0d
END DESCRIPTION:
XS GIS Cut Line=6
      3259777.04      9972532.27      3260000.44      9972391.61
       3259996.3      9972176.47      3259983.89      9972035.81
      3259913.22      9971833.43      3259989.99      9971635.02
Node Last Edited Time=May/04/2018 07:18:05
#Sta/Elev= 132 
  4421.6   439.2  4423.7   439.2  4428.4     439  4436.9  438.27  4443.7  437.56
  4449.6  437.55    4459   436.5  4464.9   436.3  4472.4  435.59  4480.2  434.98
  4486.1  434.95  4495.5   434.6  4501.4  434.78  4516.7     434  4522.6  434.25
  4531.5  433.84  4537.9  433.55  4543.8  433.94  4553.2  433.55  4559.1  433.53
  4566.9  432.86  4574.4  432.18  4580.3  432.07  4589.7  431.72  4595.6  431.92
  4602.4  431.52  4610.9  430.79  4616.8  430.58    4626  430.34  4632.1  430.07
    4638  429.87  4647.4  429.57  4653.3  429.79  4661.4  429.39  4668.6  428.97
  4674.5  428.77  4682.4  428.21  4685.6  428.21  4692.2  428.23  4702.2  428.39
  4712.2  428.46  4722.2   428.2  4732.2  427.26  4742.2  427.31  4752.2  427.35
  4772.2  427.33  4782.2  427.38  4792.2  427.33  4802.2  427.33  4812.2  427.47
  4822.2   427.4  4832.2  427.35  4882.2  427.39  4892.2  427.29    4899  427.36
    4904  427.36  4911.4  427.41  4916.5  427.37  4922.3  427.39  4932.4  427.34
  4942.4   427.4  4952.4  427.44  4962.5  427.45  4972.5   427.4  4992.6  427.37
  4997.5  427.26    4998  427.16    5002  427.16  5002.5  427.26  5002.6   427.4
  5022.7  427.52  5028.6  427.52  5033.6  427.54  5039.9  427.55    5042  427.55
  5045.1  427.55  5053.4   427.5  5063.8  427.45  5069.1  427.45  5074.6   427.4
  5085.2  427.38  5094.9  427.82  5100.2  427.86  5106.4  427.69    5117  427.42
    5126  427.72  5131.3  427.98  5138.2  428.61  5148.8  429.06    5157  429.33
  5162.3  429.24    5170  430.39  5188.1  433.31  5193.4  433.06  5201.7  433.55
  5212.3  433.95  5219.1  434.43  5224.4  434.13  5233.5  434.51  5244.1  434.99
  5250.2  435.35  5253.7  434.77  5256.3  434.77  5260.7  435.04    5266  435.59
  5276.1  435.68  5285.2  435.91  5290.6  436.35  5297.6  436.91  5308.3  437.34
  5315.2  437.38  5320.5  437.99  5329.7  438.12  5339.7  438.23  5345.1  438.21
  5351.2  438.22  5361.9  438.39  5369.7  438.61  5375.1  438.93  5383.3  439.04
  5394.1  439.18  5399.6  439.32    5405  440.02  5415.5  440.09  5424.2  440.08
  5429.6  440.38  5436.9  440.54  5447.7  440.59  5454.1  440.53  5459.5  440.05
  5466.4  440.06  5469.1  440.06
#Mann= 3 ,-1 , 0 
  4421.6     .05       0  4997.5    .033       0  5002.5     .05       0
Bank Sta=4472.4,5266
XS Rating Curve= 0 ,0
Exp/Cntr=0.3,0.1

Type RM Length L Ch R = 1 ,1966    ,156,156,156
BEGIN DESCRIPTION:
Mapping XS 02e34ca3
END DESCRIPTION:
XS GIS Cut Line=8
      3260000.44      9972739.16      3260083.19      9972457.81
      3260091.46      9972362.65      3260091.46      9972172.34
      3260033.54      9971977.88      3260004.58      9971845.49
      3259994.86      9971772.48      3260015.35      9971703.32
Node Last Edited Time=May/04/2018 07:18:05
#Sta/Elev= 131 
  4317.3  449.94  4322.1  449.94  4330.2  449.92  4335.4  450.53  4342.5  450.23
  4352.9  450.55  4363.3  449.94  4368.7  449.76  4373.9  449.52  4394.6  448.39
  4402.1  447.67  4407.3  447.46  4415.4   446.6  4425.9  445.84  4435.4     445
  4440.7  445.94  4446.7  445.31  4457.1  444.49  4467.6  443.73    4474  442.83
  4479.2  443.48  4488.4  442.16  4498.8  440.37  4507.4  438.25  4512.6  439.17
  4519.7  438.23  4530.1   438.2  4540.5  438.13  4545.9  438.12  4551.1  438.15
  4571.8  438.16  4579.3  438.22  4584.5  438.35  4592.6  439.84  4603.1  440.65
  4609.4  440.12  4614.5  440.12  4623.4  439.08    4630  438.63    4635  439.44
  4643.5   439.1  4663.6   438.4  4673.6  436.63  4683.6  436.12  4693.7  437.59
  4702.4  437.25  4706.1  437.25  4713.7   436.6  4723.7  435.77  4733.7  434.92
  4743.7  434.21  4753.7  434.17  4763.7  434.26  4773.7  434.01  4783.7  434.13
  4793.7  434.61  4803.7  435.08  4813.7  435.46  4823.7   436.1  4833.7  436.45
  4843.7  436.74  4853.7  436.89  4863.7  436.95  4883.7  436.79  4892.6  436.66
  4896.4  436.66  4904.1  436.41  4914.1  436.21  4919.4  436.55  4924.9  436.61
  4935.4  436.67  4945.8  436.57  4952.5  436.41  4957.7   436.1  4966.7  436.33
  4977.1  436.36  4985.7  436.46  4990.9  434.02  4997.5  432.49    4998  432.39
    5002  432.39  5002.5  432.49  5008.4  435.68  5018.8  436.17  5024.1   436.4
  5029.3  433.38  5039.7  434.42  5050.1  435.24  5057.2  435.93  5062.5  432.49
    5071  433.63  5081.4  434.79  5090.4  435.81  5095.6  432.66  5098.2  433.73
  5103.3  433.73  5112.5  434.87  5122.7  435.73    5133   436.4  5138.7  436.61
  5143.8  434.68  5153.4  435.92  5163.7  436.59  5173.9  436.83  5182.5  436.93
  5187.7  436.32  5194.4  436.74  5204.6  436.88  5214.8  436.84  5225.1  436.68
  5231.5  436.02  5233.8  436.71  5237.6  436.71  5245.4  436.43  5255.5  435.76
  5265.6  435.29  5275.7  435.09  5285.8  435.69  5295.8  436.81  5304.1  437.32
  5307.9  437.08    5310  437.32  5316.3  437.37  5326.7  437.08  5337.1  436.94
  5343.3  437.29  5348.5  436.71    5358  436.91  5368.4  436.91  5376.5  436.94
  5380.6  436.29
#Mann= 3 ,-1 , 0 
  4317.3     .05       0  4997.5     .04       0  5002.5     .05       0
Bank Sta=4733.7,5153.4
XS Rating Curve= 0 ,0
Exp/Cntr=0.3,0.1

Type RM Length L Ch R = 1 ,1810    ,358,358,358
BEGIN DESCRIPTION:
ALUM 006 3.0
END DESCRIPTION:
XS GIS Cut Line=3
      3260301.71      9972593.65      3260201.71      9971993.63
      3260045.95      9971671.73
Node Last Edited Time=May/04/2018 07:18:05
#Sta/Elev= 118 
  4432.6  447.15  4441.4  446.59  4451.5  446.01  4461.6  445.57  4470.1     445
  4475.1  444.87  4481.9   444.3  4492.1  443.86  4502.2  443.19  4512.3   442.6
  4522.5  442.04  4530.9  441.45    4536  441.26  4542.7  440.72  4573.2  439.13
  4591.7  438.13  4596.8  438.04  4603.6  437.68  4613.7  436.92  4623.9  436.33
    4634  436.02  4644.1  435.61  4652.6  435.08  4657.6  434.86  4664.4  434.21
  4674.5  433.81  4684.7  433.38  4694.8  433.14    4705  432.84  4713.4   432.4
  4718.4  432.24  4725.2  431.76  4745.5  430.83  4755.6  430.36  4765.8   430.1
  4779.3  429.66  4786.1  429.58  4796.2  429.07  4806.3  428.76  4826.6  427.92
    4835   427.7  4840.1  427.72  4846.9  427.59    4857  427.22  4877.3  427.03
  4887.4  426.55  4895.9  426.12  4900.9  426.52  4907.7  426.35  4917.9  426.12
    4928  426.14  4938.1  426.26  4948.3  425.91  4956.7  424.26  4961.8  424.35
  4968.5  421.92  4988.8   422.2  4997.5  421.92    4998  421.82    5002  421.82
  5002.5  421.92  5009.1  422.59  5017.5  423.54  5022.6  423.83  5029.4  425.01
  5037.7  424.83  5040.9  424.83  5042.9  424.83  5050.5  423.75  5056.2  422.33
  5061.7  422.49  5072.7  424.05  5078.8  424.59  5084.3     425  5094.9  425.34
  5101.3  426.01  5106.9  426.24  5117.1  426.51  5123.9  427.05  5129.5  427.24
  5139.4  427.62  5146.5  427.54  5152.1  427.32  5161.6  427.43  5169.1   427.7
  5174.7  428.09  5183.8  428.08  5186.8  428.11  5191.7  428.17  5197.3  428.63
    5206  428.87  5214.3  428.83  5219.8   429.3  5228.2  429.24  5236.9  429.22
  5242.4  429.37  5250.4  429.49  5259.5  429.58    5265  430.03  5272.7   430.1
  5282.1  430.21  5287.6  430.72  5294.9  430.71  5298.4   430.7  5304.6  430.69
  5310.2  431.27  5317.1  431.29  5327.2  431.44  5332.8  432.16  5339.3  432.29
  5349.8  432.27  5355.4  432.96  5361.5  432.97  5372.4  433.01    5378  433.76
  5383.8  433.79  5393.9  433.75  5398.5  433.75
#Mann= 5 ,-1 , 0 
  4432.6     .05       0  4997.5     .03       0  5002.5     .05       0
  5186.8      .1       0  5298.4     .05       0
Bank Sta=4961.8,5078.8
XS Rating Curve= 0 ,0
Exp/Cntr=0.3,0.1

Type RM Length L Ch R = 1 ,1452    ,278,278,278
BEGIN DESCRIPTION:
ALUM 006 2.0
END DESCRIPTION:
XS GIS Cut Line=3
      3260490.01      9972184.96        3260540.        9971935.
      3259990.02      9971585.01
Node Last Edited Time=May/04/2018 07:18:05
#Sta/Elev= 121 
    4735  428.02  4737.5  428.02  4745.2  427.49  4755.4  426.81  4765.5   426.2
  4775.7  425.73  4785.9  425.28  4796.1  425.04  4806.3  424.33  4816.5  424.25
  4826.7  423.91  4836.9   423.5  4847.1  423.04  4857.3  422.72  4867.5  422.37
  4877.7  422.17  4887.9  422.09  4898.1  421.89  4908.3  421.44  4918.5  420.88
  4928.7  420.77  4938.9  420.63  4949.1  420.53  4959.3  419.95  4969.5  419.64
  4979.7  419.04  4987.4  417.73  4989.9  417.73  4992.9  417.73  4997.5  417.73
    4998  417.63    5002  417.63  5002.5  417.73  5003.5  418.12  5012.8   418.1
  5018.7  419.79  5025.5  420.42  5033.9  421.13  5039.9  421.36  5049.2  421.63
    5061  421.52  5070.3  422.03  5076.3   422.2  5084.7  422.41  5091.5  422.24
  5097.4  422.23  5106.7  422.54  5112.7  422.69  5120.3  422.77  5127.9  422.78
  5133.8  422.72  5143.1  423.11  5149.1   423.3  5155.8   423.4  5164.3  423.12
  5170.2  422.94  5179.6  423.11  5191.4  423.45  5200.7  423.51  5206.6  423.69
  5215.1  423.79  5221.9  423.99  5227.8  424.14  5237.1  424.26  5243.1   424.2
  5250.7  424.25  5258.3  424.61  5264.2  424.73  5273.5  424.98  5279.5  424.86
  5286.2  425.15  5294.7  425.41  5300.6  425.36  5309.9  425.38  5321.8  425.71
  5331.1  425.87    5337  425.91  5345.5  425.94  5348.3  426.28  5352.3  426.77
  5358.2  427.12  5367.5  426.49  5373.4  426.48  5381.1   426.5  5388.7   427.1
  5394.6  426.99  5409.8  427.35  5416.6  427.78  5423.3  427.86  5425.1  427.88
    5431  427.91  5440.3  428.12  5452.2  428.51  5461.5   429.1  5467.4  428.92
  5475.9  429.38  5482.7  430.08  5488.6  429.92  5493.8  430.32  5497.9  430.63
  5503.8  430.53  5511.4  431.02  5519.1  431.37    5525  431.41  5534.3  431.79
  5537.2  431.82  5540.2  431.85    5547  432.36  5555.5  432.86  5561.4  432.79
  5570.7   433.4  5582.6  434.13  5591.9  434.85  5597.8  434.91  5606.3  435.78
    5613  437.76    5619  437.85  5628.3  438.91  5634.2  439.01  5638.9   440.2
  5641.8   440.2
#Mann= 7 ,-1 , 0 
    4735     .05       0  4997.5    .035       0  5002.5     .05       0
  5348.3      .1       0  5423.3     .05       0  5493.8      .1       0
  5537.2     .05       0
Bank Sta=4959.3,5025.5
XS Rating Curve= 0 ,0
Exp/Cntr=0.3,0.1

Type RM Length L Ch R = 1 ,1174    ,220,220,220
BEGIN DESCRIPTION:
Mapping XS 7ab77782
END DESCRIPTION:
XS GIS Cut Line=4
      3260823.76        9972193.      3260798.94      9971986.16
      3260778.25      9971845.49      3260531.32      9971465.37
Node Last Edited Time=May/04/2018 07:18:05
#Sta/Elev= 108 
  4668.4  424.75  4676.5  424.26  4686.5  423.94  4696.6  423.76  4706.7  423.53
  4716.7  423.32  4726.8  422.98  4736.9  422.82  4741.9  423.12    4747  422.83
    4757  422.21  4767.1  421.75  4777.2  421.51  4787.3  421.29  4797.3  421.15
  4817.5  420.64  4824.2  420.27  4829.2  420.35  4837.6  420.06  4847.7  419.81
  4857.8  419.64  4867.8  419.39  4874.8  419.26  4879.8  419.26    4888  418.92
  4898.1  418.74  4903.5  418.44  4908.5  418.32  4918.3  418.19  4928.4  417.73
  4938.5  417.59  4948.7  417.34  4958.8  417.37  4968.2  416.88  4973.2  415.51
    4979  414.32  4989.1  414.05  4997.5  413.99    4998  413.89    5002  413.89
  5002.5  413.99  5009.3  414.06  5016.6  414.17  5018.9  414.17  5021.9  414.17
  5025.2  414.01  5031.3  414.59  5031.4   414.6  5040.3  416.63  5046.3  418.76
  5055.3  418.63  5061.4  417.79  5064.4  417.55  5067.4  417.31  5076.6  417.16
  5082.5  417.13    5091  417.19  5097.7  417.28  5103.6  417.63  5112.8  417.42
  5118.8  417.61  5126.8  417.62  5133.9  417.84  5139.9  417.86    5149  417.86
    5155  417.97  5162.6  417.97  5170.1     418  5176.1  418.23  5185.3  418.39
  5191.2  419.27  5198.4  419.55  5206.4  419.42  5212.3  418.75  5221.5  418.63
  5227.5  418.77  5234.1  418.76  5242.6  418.71  5248.6  418.81  5257.8  418.94
  5263.7  419.26  5269.9  419.29  5278.9   419.4  5284.8  419.68    5300   419.8
  5305.9  419.96  5315.1  419.99  5321.1  420.12  5336.2  420.31  5342.2  420.71
  5351.4  420.89  5357.3   421.6  5365.3  421.73  5372.5  421.73  5378.4  421.36
  5387.6  421.52  5393.6  421.84  5408.7  422.11  5414.7  422.37  5423.8  422.45
  5429.8  422.45  5436.9  422.64    5445  422.79  5450.9   423.1  5460.1  423.33
  5466.1  423.72  5469.4  423.95  5472.2  423.95
#Mann= 5 ,-1 , 0 
  4668.4     .05       0  4997.5     .03       0  5002.5     .05       0
  5031.3     .12       0  5064.4     .05       0
Bank Sta=4968.2,5040.3
XS Rating Curve= 0 ,0
Exp/Cntr=0.3,0.1

Type RM Length L Ch R = 1 ,954     ,537,537,537
BEGIN DESCRIPTION:
Mapping XS 6cb722c6
END DESCRIPTION:
XS GIS Cut Line=4
       3261038.9      9972122.71      3261022.35       9971924.1
      3260947.88      9971729.65       3260733.9      9971544.47
Node Last Edited Time=May/04/2018 07:18:05
#Sta/Elev= 97 
  4642.2  424.16  4649.9  423.96    4660  423.62  4669.2  423.26    4670  423.23
    4680  422.87  4687.1  422.64  4692.1  422.72  4710.1  421.79  4720.2  421.43
  4730.2   421.1  4740.2  420.84  4750.3  420.39  4760.3  419.79  4770.3  419.23
  4780.4   418.5  4790.4  417.89  4800.5   417.6  4807.5  417.44  4812.6  417.67
  4820.5  417.34  4830.6  416.87  4838.5  416.48  4841.5  416.48  4843.7  416.48
  4851.2  415.41  4859.3  415.51  4864.7  415.87  4872.7  415.73  4878.6  415.53
  4883.4  415.37  4889.4  414.97  4894.7  414.99  4904.8  414.67  4914.1  414.72
  4919.4  414.93  4926.2  415.03  4936.9  414.74  4944.1  414.02  4949.4  414.03
  4958.3  413.46  4968.8  413.05  4974.1   413.3  4979.7  413.23  4990.4  412.95
  4997.5   412.3    4998   412.2    5002   412.2  5002.5   412.3  5004.2   412.3
  5011.9  413.02  5022.6  413.55  5028.9  413.84  5034.2  413.53    5044  413.89
  5049.5  414.07  5051.7  414.11    5059  414.24  5065.6  414.51  5073.2  414.64
  5079.9  415.03  5086.6  415.27  5094.1  415.27  5100.7  415.36  5108.4  415.56
    5115  415.88  5122.6  415.83  5129.2  416.14  5136.9  416.24  5143.5  416.57
  5151.1  416.75  5157.7  417.02  5165.4  417.19    5172  417.21  5179.2  417.18
  5186.2  417.06  5192.9  417.16  5200.5  417.18  5207.1  417.15  5214.8  417.37
  5221.4  417.32    5229   417.9  5235.6  417.78  5243.3  417.29  5249.9  417.13
  5257.5  417.29  5264.1  417.18  5271.7  417.55  5278.4  417.62    5285   417.4
  5292.6  417.52  5299.2  417.45  5306.9   417.9  5313.5   417.8  5321.1  418.26
  5327.7  418.19  5332.7  418.49
#Mann= 6 ,-1 , 0 
  4642.2     .16       0  4669.2     .05       0  4878.6     .12       0
  4997.5     .07       0  5002.5     .12       0  5051.7     .05       0
Bank Sta=4936.9,5065.6
XS Rating Curve= 0 ,0
Exp/Cntr=0.3,0.1

Type RM Length L Ch R = 1 ,417     ,0,0,0
BEGIN DESCRIPTION:
ALUM 006 1.0
END DESCRIPTION:
XS GIS Cut Line=3
      3261084.38      9972234.42      3261444.35      9971903.41
      3261106.14      9971408.46
Node Last Edited Time=May/04/2018 07:18:05
#Sta/Elev= 164 
  4547.8  424.67  4551.5  424.12  4558.3  424.07  4565.7  423.48  4572.5  423.67
  4579.1  422.95  4579.8  422.87  4586.6  423.13    4594   422.5  4600.8  422.54
  4608.2  422.16    4615  422.18  4622.4  421.71  4629.2  421.86  4636.6  421.25
  4643.4  421.17  4650.5   420.8  4657.5  419.93  4664.3  419.93  4671.7  419.15
  4678.5  419.16  4685.9  418.45  4692.7  418.28  4700.1   417.7  4706.9  417.59
  4714.3  416.94    4721  416.84  4728.4  416.33  4735.2  416.12  4742.6   415.6
  4749.4  415.34  4756.8   414.8  4763.6  414.61  4763.7   414.6    4771  414.06
  4777.8  413.98  4785.1  413.41  4791.9  413.27  4799.3  412.73  4806.1  412.67
  4813.5  412.21  4820.3     412  4827.1  411.46  4834.5  411.07  4841.3  410.99
  4855.5  410.54  4862.8  410.11  4869.6  409.94    4877  409.56  4880.2   409.5
  4883.8  409.43  4891.2  409.11  4902.9   408.7  4905.4  408.61  4912.2  408.49
  4919.6  408.07  4926.3  407.92  4933.7  407.58  4940.5  407.72  4947.9  407.52
  4954.7  407.22  4962.1  406.87  4968.9  406.92  4976.3  406.45  4983.1  406.03
  4990.2  405.72  4997.2  405.62  4997.5  405.04    4998  404.94    5002  404.94
  5002.5  405.04    5004  405.78  5011.4  405.69  5018.2  405.65  5019.4  405.61
  5025.6  405.43    5032  405.14  5036.8  405.14  5038.9  405.14    5047  405.04
  5053.2   405.2  5059.3  405.22  5068.2  405.51  5074.2  405.39  5083.1  405.57
  5089.1  405.55  5095.5   405.7    5104  405.83  5110.1  405.98    5119  405.99
    5125  406.22  5131.8  406.37  5139.9   406.5    5146  406.77  5154.9  406.89
  5160.9  407.02  5168.1  407.76  5175.8  407.85  5181.9  407.97  5190.8  408.47
  5196.8  408.31  5204.5  408.61  5217.8  409.22  5226.6  409.11  5232.7  408.82
  5240.8  409.09  5247.6  409.09  5253.7  408.96  5262.5  408.88  5268.6  409.01
  5277.1  408.91  5283.5  409.16  5289.6  409.37  5296.2  409.42  5298.4  409.43
  5304.5  409.39  5313.3  409.23  5319.4  409.18  5325.6  409.09  5334.3  408.89
  5340.4  409.06  5349.2  408.94  5355.3  409.32  5360.3  409.15  5361.9  409.09
  5376.3  409.37  5385.1  409.32  5389.4  409.14  5391.2  409.06  5398.3  409.26
  5406.1  409.26  5412.2  409.33    5421  409.21  5427.1  409.43  5434.6  409.39
    5442  409.12  5448.1  409.32  5456.9  409.31    5463  409.56  5470.9  409.38
  5477.9  409.37  5483.9  409.62  5492.8  409.39  5498.9  409.42  5507.3  409.34
  5513.8  409.37  5519.8  409.39  5528.7   409.3  5534.8  409.41  5543.6  409.57
  5549.7  409.69  5555.7  409.98  5564.6  409.81  5569.1  409.95  5570.6  409.99
  5579.5  409.76  5585.6  410.06  5600.5  409.97  5606.5  410.25  5615.4  410.26
  5621.5  410.51  5628.4  410.61  5634.6  410.61  5636.3  410.61
#Mann= 13 ,-1 , 0 
  4547.8      .1       0  4579.1     .16       0  4763.7     .05       0
  4880.2     .16       0  4902.9     .05       0  4997.5     .03       0
  5002.5     .05       0  5019.4     .16       0  5296.2      .1       0
  5360.3     .12       0  5389.4      .1       0  5569.1     .05       0
  5634.6      .1       0
Bank Sta=4947.9,5168.1
XS Rating Curve= 0 ,0
Exp/Cntr=0.3,0.1

Chan Stop Cuts=-1 



Use User Specified Reach Order=0
GIS Ratio Cuts To Invert=-1
GIS Limit At Bridges=0
Composite Channel Slope=5
