Proj Title=COLEMAN BRANCH Base Level Engineering
Current Plan=p01
Default Exp/Contr=0.3,0.1
English Units
Geom File=g01
Flow File=f01
Plan File=p01
BEGIN DESCRIPTION:
COLEMAN BRANCH
END DESCRIPTION:
