Geom Title=Existing Conditions
Program Version=4.10
Viewing Rectangle= 3187764.99 , 3204714.99 , 10072836.08 , 10044053.55 

River Reach=COLEMAN BRANCH  ,Reach-1         
Reach XY= 1083 
      3192764.99     10067836.08      3192794.99     10067806.08
      3192794.99     10067786.08      3192804.99     10067776.08
      3192804.99     10067696.08      3192834.99     10067666.08
      3192884.99     10067666.08      3192914.99     10067696.08
      3192934.99     10067696.08      3192964.99     10067666.08
      3192984.99     10067666.08      3192994.99     10067656.08
      3193034.99     10067656.08      3193064.99     10067626.08
      3193064.99     10067586.08      3193054.99     10067576.08
      3193054.99     10067516.08      3193064.99     10067506.08
      3193064.99     10067486.08      3193074.99     10067476.08
      3193074.99     10067466.08      3193084.99     10067456.08
      3193084.99     10067396.08      3193094.99     10067386.08
      3193094.99     10067356.08      3193104.99     10067346.08
      3193104.99     10067286.08      3193114.99     10067286.08
      3193134.99     10067266.08      3193144.99     10067266.08
      3193154.99     10067256.08      3193204.99     10067256.08
      3193214.99     10067246.08      3193224.99     10067246.08
      3193274.99     10067196.08      3193294.99     10067196.08
      3193314.99     10067176.08      3193314.99     10067166.08
      3193344.99     10067136.08      3193344.99     10067106.08
      3193364.99     10067086.08      3193364.99     10066996.08
      3193374.99     10066986.08      3193364.99     10066976.08
      3193364.99     10066936.08      3193374.99     10066926.08
      3193374.99     10066836.08      3193384.99     10066826.08
      3193384.99     10066816.08      3193374.99     10066806.08
      3193374.99     10066786.08      3193354.99     10066766.08
      3193354.99     10066746.08      3193344.99     10066736.08
      3193344.99     10066726.08      3193334.99     10066716.08
      3193334.99     10066686.08      3193324.99     10066676.08
      3193324.99     10066666.08      3193314.99     10066656.08
      3193314.99     10066636.08      3193304.99     10066626.08
      3193304.99     10066596.08      3193314.99     10066586.08
      3193314.99     10066576.08      3193324.99     10066566.08
      3193334.99     10066566.08      3193394.99     10066506.08
      3193394.99     10066486.08      3193404.99     10066476.08
      3193404.99     10066446.08      3193414.99     10066436.08
      3193414.99     10066366.08      3193424.99     10066356.08
      3193424.99     10066346.08      3193454.99     10066316.08
      3193464.99     10066316.08      3193484.99     10066296.08
      3193494.99     10066296.08      3193514.99     10066276.08
      3193534.99     10066276.08      3193544.99     10066286.08
      3193584.99     10066286.08      3193594.99     10066276.08
      3193604.99     10066276.08      3193614.99     10066266.08
      3193614.99     10066256.08      3193624.99     10066246.08
      3193624.99     10066236.08      3193634.99     10066226.08
      3193634.99     10066166.08      3193624.99     10066156.08
      3193624.99     10066116.08      3193614.99     10066106.08
      3193614.99     10066076.08      3193604.99     10066066.08
      3193604.99     10066036.08      3193594.99     10066026.08
      3193594.99     10066016.08      3193584.99     10066006.08
      3193614.99     10065976.08      3193624.99     10065976.08
      3193634.99     10065966.08      3193684.99     10065966.08
      3193714.99     10065936.08      3193714.99     10065906.08
      3193724.99     10065896.08      3193724.99     10065846.08
      3193734.99     10065836.08      3193734.99     10065806.08
      3193724.99     10065796.08      3193724.99     10065786.08
      3193714.99     10065776.08      3193714.99     10065756.08
      3193664.99     10065706.08      3193664.99     10065536.08
      3193644.99     10065516.08      3193644.99     10065496.08
      3193624.99     10065476.08      3193624.99     10065426.08
      3193614.99     10065416.08      3193614.99     10065406.08
      3193604.99     10065396.08      3193604.99     10065386.08
      3193584.99     10065366.08      3193584.99     10065326.08
      3193574.99     10065316.08      3193574.99     10065256.08
      3193564.99     10065246.08      3193564.99     10065236.08
      3193554.99     10065226.08      3193554.99     10065216.08
      3193544.99     10065206.08      3193544.99     10065186.08
      3193524.99     10065166.08      3193524.99     10065156.08
      3193504.99     10065136.08      3193504.99     10065126.08
      3193494.99     10065116.08      3193484.99     10065116.08
      3193474.99     10065106.08      3193464.99     10065106.08
      3193434.99     10065076.08      3193434.99     10065056.08
      3193424.99     10065046.08      3193424.99     10065036.08
      3193414.99     10065026.08      3193414.99     10065006.08
      3193404.99     10064996.08      3193404.99     10064986.08
      3193394.99     10064976.08      3193394.99     10064956.08
      3193384.99     10064946.08      3193384.99     10064936.08
      3193334.99     10064886.08      3193324.99     10064886.08
      3193304.99     10064866.08      3193264.99     10064866.08
      3193244.99     10064846.08      3193224.99     10064846.08
      3193204.99     10064826.08      3193194.99     10064826.08
      3193184.99     10064816.08      3193144.99     10064816.08
      3193134.99     10064806.08      3193114.99     10064806.08
      3193094.99     10064786.08      3193044.99     10064786.08
      3192984.99     10064726.08      3192984.99     10064706.08
      3192994.99     10064696.08      3192994.99     10064646.08
      3192984.99     10064636.08      3192984.99     10064566.08
      3192994.99     10064556.08      3192994.99     10064546.08
      3193004.99     10064536.08      3193004.99     10064526.08
      3193024.99     10064506.08      3193034.99     10064506.08
      3193094.99     10064566.08      3193094.99     10064576.08
      3193084.99     10064586.08      3193104.99     10064606.08
      3193184.99     10064606.08      3193194.99     10064596.08
      3193194.99     10064556.08      3193204.99     10064546.08
      3193204.99     10064476.08      3193194.99     10064466.08
      3193194.99     10064426.08      3193184.99     10064416.08
      3193184.99     10064396.08      3193174.99     10064386.08
      3193174.99     10064326.08      3193194.99     10064306.08
      3193244.99     10064306.08      3193254.99     10064316.08
      3193264.99     10064316.08      3193274.99     10064326.08
      3193294.99     10064326.08      3193304.99     10064336.08
      3193324.99     10064336.08      3193334.99     10064346.08
      3193404.99     10064346.08      3193434.99     10064316.08
      3193434.99     10064286.08      3193424.99     10064276.08
      3193424.99     10064226.08      3193394.99     10064196.08
      3193364.99     10064196.08      3193354.99     10064186.08
      3193344.99     10064186.08      3193304.99     10064146.08
      3193304.99     10064096.08      3193294.99     10064086.08
      3193294.99     10064076.08      3193284.99     10064066.08
      3193284.99     10064016.08      3193294.99     10064006.08
      3193294.99     10063976.08      3193364.99     10063906.08
      3193374.99     10063906.08      3193484.99     10063796.08
      3193531.09     10063757.57      3193531.09     10063681.18
       3193492.9     10063618.68      3193475.54     10063570.07
      3193531.09     10063538.82      3193583.18     10063517.99
      3193694.29     10063524.93      3193753.32      10063528.4
      3193808.87     10063476.32      3193871.37     10063448.54
      3193909.57     10063389.51      3193919.98      10063340.9
      3193924.99     10063256.08      3193914.99     10063246.08
      3193904.99     10063246.08      3193884.99     10063226.08
      3193874.99     10063226.08      3193854.99     10063206.08
      3193854.99     10063186.08      3193864.99     10063176.08
      3193854.99     10063166.08      3193854.99     10063146.08
      3193844.99     10063136.08      3193844.99     10063106.08
      3193854.99     10063096.08      3193854.99     10063066.08
      3193864.99     10063056.08      3193874.99     10063056.08
      3193934.99     10062996.08      3193964.99     10062996.08
      3193984.99     10062976.08      3193984.99     10062956.08
      3193994.99     10062946.08      3193994.99     10062876.08
      3193984.99     10062866.08      3193984.99     10062846.08
      3193964.99     10062826.08      3193954.99     10062826.08
      3193934.99     10062806.08      3193894.99     10062806.08
      3193874.99     10062786.08      3193874.99     10062776.08
      3193834.99     10062736.08      3193834.99     10062696.08
      3193814.99     10062676.08      3193814.99     10062596.08
      3193804.99     10062586.08      3193804.99     10062466.08
      3193824.99     10062446.08      3193824.99     10062426.08
      3193844.99     10062406.08      3193844.99     10062396.08
      3193854.99     10062386.08      3193854.99     10062376.08
      3193904.99     10062326.08      3193914.99     10062326.08
      3193934.99     10062306.08      3193944.99     10062306.08
      3193954.99     10062296.08      3193974.99     10062296.08
      3193994.99     10062316.08      3194004.99     10062316.08
      3194024.99     10062336.08      3194064.99     10062336.08
      3194074.99     10062326.08      3194074.99     10062306.08
      3194094.99     10062286.08      3194104.99     10062286.08
      3194124.99     10062266.08      3194144.99     10062266.08
      3194154.99     10062256.08      3194164.99     10062256.08
      3194174.99     10062246.08      3194184.99     10062246.08
      3194204.99     10062226.08      3194204.99     10062206.08
      3194254.99     10062156.08      3194264.99     10062156.08
      3194304.99     10062116.08      3194314.99     10062116.08
      3194334.99     10062096.08      3194344.99     10062096.08
      3194354.99     10062086.08      3194374.99     10062086.08
      3194384.99     10062076.08      3194454.99     10062076.08
      3194484.99     10062046.08      3194484.99     10062036.08
      3194494.99     10062026.08      3194494.99     10062006.08
      3194514.99     10061986.08      3194514.99     10061976.08
      3194534.99     10061956.08      3194534.99     10061936.08
      3194554.99     10061916.08      3194554.99     10061906.08
      3194564.99     10061896.08      3194564.99     10061886.08
      3194574.99     10061876.08      3194574.99     10061836.08
      3194524.99     10061786.08      3194524.99     10061746.08
      3194534.99     10061736.08      3194534.99     10061726.08
      3194584.99     10061676.08      3194584.99     10061666.08
      3194594.99     10061656.08      3194594.99     10061556.08
      3194584.99     10061546.08      3194584.99     10061416.08
      3194594.99     10061406.08      3194594.99     10061386.08
      3194604.99     10061376.08      3194604.99     10061346.08
      3194614.99     10061336.08      3194614.99     10061316.08
      3194654.99     10061276.08      3194704.99     10061276.08
      3194744.99     10061316.08      3194744.99     10061346.08
      3194734.99     10061356.08      3194734.99     10061376.08
      3194764.99     10061406.08      3194774.99     10061406.08
      3194814.99     10061366.08      3194834.99     10061386.08
      3194854.99     10061386.08      3194914.99     10061446.08
      3194924.99     10061446.08      3194934.99     10061456.08
      3194954.99     10061456.08      3194964.99     10061446.08
      3194964.99     10061436.08      3194984.99     10061416.08
      3194984.99     10061396.08      3194994.99     10061386.08
      3194994.99     10061366.08      3195004.99     10061366.08
      3195054.99     10061316.08      3195054.99     10061306.08
      3195064.99     10061296.08      3195074.99     10061296.08
      3195094.99     10061276.08      3195144.99     10061276.08
      3195164.99     10061256.08      3195294.99     10061256.08
      3195334.99     10061216.08      3195334.99     10061206.08
      3195354.99     10061186.08      3195354.99     10061156.08
      3195404.99     10061106.08      3195434.99     10061106.08
      3195444.99     10061096.08      3195454.99     10061096.08
      3195554.99     10060996.08      3195554.99     10060896.08
      3195564.99     10060886.08      3195564.99     10060786.08
      3195584.99     10060766.08      3195594.99     10060766.08
      3195674.99     10060686.08      3195674.99     10060666.08
      3195714.99     10060626.08      3195734.99     10060626.08
      3195744.99     10060616.08      3195764.99     10060616.08
      3195774.99     10060606.08      3195784.99     10060606.08
      3195804.99     10060586.08      3195924.99     10060586.08
      3195934.99     10060576.08      3195944.99     10060576.08
      3196004.99     10060516.08      3196014.99     10060516.08
      3196034.99     10060496.08      3196044.99     10060496.08
      3196104.99     10060436.08      3196124.99     10060436.08
      3196134.99     10060426.08      3196214.99     10060426.08
      3196244.99     10060396.08      3196244.99     10060376.08
      3196264.99     10060356.08      3196264.99     10060346.08
      3196274.99     10060336.08      3196284.99     10060326.08
      3196284.99     10060316.08      3196314.99     10060316.08
      3196324.99     10060306.08      3196324.99     10060266.08
      3196364.99     10060226.08      3196394.99     10060226.08
      3196424.99     10060196.08      3196424.99     10060116.08
      3196414.99     10060106.08      3196414.99     10060016.08
      3196374.99     10059976.08      3196264.99     10059976.08
      3196234.99     10059946.08      3196234.99     10059916.08
      3196214.99     10059896.08      3196214.99     10059676.08
      3196204.99     10059666.08      3196204.99     10059566.08
      3196194.99     10059556.08      3196194.99     10059536.08
      3196184.99     10059526.08      3196184.99     10059436.08
      3196174.99     10059426.08      3196174.99     10059406.08
      3196164.99     10059396.08      3196164.99     10059136.08
      3196274.99     10059026.08      3196274.99     10059016.08
      3196294.99     10058996.08      3196294.99     10058986.08
      3196304.99     10058976.08      3196304.99     10058956.08
      3196314.99     10058946.08      3196314.99     10058916.08
      3196334.99     10058896.08      3196334.99     10058886.08
      3196344.99     10058876.08      3196344.99     10058846.08
      3196474.99     10058716.08      3196484.99     10058716.08
      3196494.99     10058706.08      3196524.99     10058706.08
      3196534.99     10058716.08      3196654.99     10058716.08
      3196664.99     10058706.08      3196704.99     10058706.08
      3196714.99     10058696.08      3196724.99     10058696.08
      3196734.99     10058686.08      3196744.99     10058686.08
      3196824.99     10058606.08      3196824.99     10058596.08
      3196874.99     10058546.08      3196874.99     10058536.08
      3196884.99     10058526.08      3196894.99     10058526.08
      3196904.99     10058516.08      3196904.99     10058476.08
      3196914.99     10058466.08      3196914.99     10058396.08
      3196854.99     10058336.08      3196854.99     10058326.08
      3196844.99     10058316.08      3196844.99     10058296.08
      3196834.99     10058286.08      3196834.99     10058276.08
      3196804.99     10058246.08      3196794.99     10058246.08
      3196784.99     10058236.08      3196764.99     10058236.08
      3196724.99     10058276.08      3196724.99     10058296.08
      3196714.99     10058306.08      3196714.99     10058356.08
      3196684.99     10058386.08      3196674.99     10058386.08
      3196664.99     10058396.08      3196654.99     10058396.08
      3196644.99     10058406.08      3196604.99     10058406.08
      3196594.99     10058396.08      3196574.99     10058396.08
      3196554.99     10058376.08      3196544.99     10058376.08
      3196534.99     10058366.08      3196534.99     10058346.08
      3196514.99     10058326.08      3196514.99     10058306.08
      3196504.99     10058296.08      3196504.99     10058216.08
      3196494.99     10058206.08      3196494.99     10058196.08
      3196484.99     10058186.08      3196484.99     10058156.08
      3196474.99     10058146.08      3196474.99     10058136.08
      3196444.99     10058106.08      3196444.99     10058066.08
      3196454.99     10058056.08      3196454.99     10058016.08
      3196444.99     10058006.08      3196444.99     10057996.08
      3196434.99     10057986.08      3196444.99     10057976.08
      3196444.99     10057926.08      3196474.99     10057896.08
      3196484.99     10057896.08      3196534.99     10057846.08
      3196544.99     10057846.08      3196554.99     10057836.08
      3196594.99     10057836.08      3196624.99     10057866.08
      3196624.99     10057876.08      3196634.99     10057886.08
      3196634.99     10057896.08      3196654.99     10057916.08
      3196714.99     10057916.08      3196734.99     10057896.08
      3196754.99     10057896.08      3196764.99     10057886.08
      3196774.99     10057886.08      3196784.99     10057876.08
      3196814.99     10057876.08      3196824.99     10057866.08
      3196834.99     10057866.08      3196894.99     10057806.08
      3196894.99     10057786.08      3196904.99     10057776.08
      3196904.99     10057756.08      3196844.99     10057696.08
      3196844.99     10057676.08      3196834.99     10057666.08
      3196834.99     10057636.08      3196814.99     10057616.08
      3196814.99     10057586.08      3196794.99     10057566.08
      3196794.99     10057556.08      3196774.99     10057536.08
      3196774.99     10057526.08      3196754.99     10057506.08
      3196754.99     10057496.08      3196734.99     10057476.08
      3196734.99     10057466.08      3196714.99     10057446.08
      3196714.99     10057436.08      3196704.99     10057426.08
      3196704.99     10057356.08      3196724.99     10057336.08
      3196724.99     10057326.08      3196784.99     10057266.08
      3196794.99     10057266.08      3196814.99     10057246.08
      3196834.99     10057246.08      3196854.99     10057226.08
      3196904.99     10057226.08      3196914.99     10057236.08
      3196924.99     10057236.08      3196934.99     10057246.08
      3197024.99     10057246.08      3197034.99     10057236.08
      3197104.99     10057236.08      3197114.99     10057226.08
      3197134.99     10057226.08      3197144.99     10057216.08
      3197294.99     10057216.08      3197314.99     10057196.08
      3197314.99     10057156.08      3197334.99     10057136.08
      3197334.99     10057116.08      3197314.99     10057096.08
      3197314.99     10057086.08      3197284.99     10057056.08
      3197284.99     10057046.08      3197314.99     10057016.08
      3197324.99     10057016.08      3197334.99     10057006.08
      3197354.99     10057006.08      3197484.99     10056876.08
      3197504.99     10056876.08      3197524.99     10056896.08
      3197554.99     10056896.08      3197574.99     10056916.08
      3197664.99     10056916.08      3197674.99     10056906.08
      3197714.99     10056906.08      3197724.99     10056896.08
      3197734.99     10056896.08      3197744.99     10056886.08
      3197894.99     10056886.08      3197904.99     10056876.08
      3197914.99     10056876.08      3197944.99     10056846.08
      3197964.99     10056846.08      3197974.99     10056836.08
      3198004.99     10056836.08      3198044.99     10056796.08
      3198054.99     10056796.08      3198074.99     10056776.08
      3198094.99     10056776.08      3198104.99     10056766.08
      3198124.99     10056766.08      3198134.99     10056756.08
      3198214.99     10056756.08      3198224.99     10056746.08
      3198264.99     10056746.08      3198284.99     10056726.08
      3198344.99     10056726.08      3198354.99     10056736.08
      3198374.99     10056736.08      3198384.99     10056746.08
      3198404.99     10056746.08      3198424.99     10056726.08
      3198444.99     10056726.08      3198474.99     10056696.08
      3198474.99     10056686.08      3198484.99     10056676.08
      3198484.99     10056626.08      3198474.99     10056616.08
      3198474.99     10056606.08      3198464.99     10056596.08
      3198464.99     10056576.08      3198454.99     10056566.08
      3198454.99     10056426.08      3198464.99     10056416.08
      3198464.99     10056396.08      3198454.99     10056386.08
      3198454.99     10056356.08      3198444.99     10056346.08
      3198444.99     10056176.08      3198454.99     10056166.08
      3198454.99     10056096.08      3198464.99     10056086.08
      3198464.99     10056046.08      3198474.99     10056036.08
      3198474.99     10056026.08      3198484.99     10056016.08
      3198484.99     10055986.08      3198524.99     10055946.08
      3198544.99     10055946.08      3198554.99     10055936.08
      3198564.99     10055936.08      3198584.99     10055916.08
      3198624.99     10055916.08      3198634.99     10055906.08
      3198714.99     10055906.08      3198764.99     10055856.08
      3198774.99     10055856.08      3198794.99     10055836.08
      3198804.99     10055836.08      3198844.99     10055796.08
      3198854.99     10055796.08      3198904.99     10055746.08
      3198904.99     10055656.08      3198894.99     10055646.08
      3198894.99     10055606.08      3198884.99     10055596.08
      3198884.99     10055486.08      3198954.99     10055416.08
      3198954.99     10055406.08      3198964.99     10055396.08
      3198964.99     10055386.08      3198974.99     10055376.08
      3198974.99     10055356.08      3198984.99     10055346.08
      3198984.99     10055336.08      3198994.99     10055326.08
      3198994.99     10055256.08      3199004.99     10055246.08
      3199004.99     10055066.08      3199074.99     10054996.08
      3199094.99     10054996.08      3199114.99     10054976.08
      3199164.99     10054976.08      3199174.99     10054986.08
      3199184.99     10054986.08      3199194.99     10054976.08
      3199214.99     10054976.08      3199224.99     10054966.08
      3199284.99     10054966.08      3199324.99     10054926.08
      3199344.99     10054926.08      3199384.99     10054886.08
      3199384.99     10054876.08      3199394.99     10054866.08
      3199394.99     10054856.08      3199404.99     10054846.08
      3199404.99     10054836.08      3199414.99     10054826.08
      3199414.99     10054796.08      3199424.99     10054786.08
      3199424.99     10054656.08      3199444.99     10054636.08
      3199444.99     10054626.08      3199474.99     10054596.08
      3199474.99     10054586.08      3199484.99     10054576.08
      3199484.99     10054556.08      3199494.99     10054546.08
      3199494.99     10054496.08      3199484.99     10054486.08
      3199484.99     10054396.08      3199534.99     10054346.08
      3199544.99     10054346.08      3199554.99     10054336.08
      3199554.99     10054326.08      3199584.99     10054296.08
      3199584.99     10054236.08      3199604.99     10054216.08
      3199624.99     10054216.08      3199634.99     10054206.08
      3199704.99     10054206.08      3199714.99     10054196.08
      3199714.99     10054146.08      3199704.99     10054136.08
      3199704.99     10054126.08      3199694.99     10054116.08
      3199694.99     10054076.08      3199684.99     10054066.08
      3199684.99     10054056.08      3199674.99     10054046.08
      3199674.99     10054026.08      3199654.99     10054006.08
      3199654.99     10053996.08      3199634.99     10053976.08
      3199604.99     10053946.08      3199584.99     10053946.08
      3199554.99     10053916.08      3199554.99     10053896.08
      3199544.99     10053886.08      3199544.99     10053876.08
      3199524.99     10053856.08      3199524.99     10053846.08
      3199514.99     10053836.08      3199514.99     10053826.08
      3199504.99     10053816.08      3199504.99     10053786.08
      3199484.99     10053766.08      3199484.99     10053746.08
      3199464.99     10053726.08      3199464.99     10053696.08
      3199454.99     10053686.08      3199454.99     10053656.08
      3199444.99     10053646.08      3199444.99     10053616.08
      3199434.99     10053606.08      3199434.99     10053596.08
      3199414.99     10053576.08      3199414.99     10053556.08
      3199364.99     10053506.08      3199364.99     10053496.08
      3199334.99     10053466.08      3199294.99     10053466.08
      3199284.99     10053456.08      3199264.99     10053456.08
      3199244.99     10053436.08      3199244.99     10053426.08
      3199234.99     10053416.08      3199234.99     10053396.08
      3199134.99     10053296.08      3199124.99     10053296.08
      3199114.99     10053286.08      3199094.99     10053286.08
      3199074.99     10053266.08      3199024.99     10053266.08
      3199014.99     10053256.08      3198994.99     10053256.08
      3198984.99     10053246.08      3198934.99     10053246.08
      3198854.99     10053166.08      3198824.99     10053166.08
      3198814.99     10053156.08      3198804.99     10053156.08
      3198774.99     10053126.08      3198744.99     10053126.08
      3198734.99     10053116.08      3198724.99     10053116.08
      3198714.99     10053106.08      3198694.99     10053106.08
      3198674.99     10053086.08      3198654.99     10053086.08
      3198624.99     10053056.08      3198594.99     10053056.08
      3198584.99     10053046.08      3198554.99     10053046.08
      3198544.99     10053036.08      3198524.99     10053036.08
      3198484.99     10052996.08      3198484.99     10052976.08
      3198464.99     10052956.08      3198454.99     10052956.08
      3198434.99     10052936.08      3198334.99     10052936.08
      3198314.99     10052916.08      3198284.99     10052916.08
      3198274.99     10052906.08      3198264.99     10052906.08
      3198254.99     10052896.08      3198234.99     10052896.08
      3198224.99     10052886.08      3198214.99     10052886.08
      3198204.99     10052876.08      3198164.99     10052876.08
      3198154.99     10052866.08      3198114.99     10052866.08
      3198094.99     10052846.08      3198024.99     10052846.08
      3198014.99     10052836.08      3197994.99     10052836.08
      3197984.99     10052826.08      3197944.99     10052826.08
      3197934.99     10052816.08      3197904.99     10052816.08
      3197894.99     10052806.08      3197694.99     10052806.08
      3197684.99     10052816.08      3197664.99     10052816.08
      3197644.99     10052836.08      3197534.99     10052836.08
      3197524.99     10052846.08      3197394.99     10052846.08
      3197304.99     10052936.08      3197294.99     10052936.08
      3197284.99     10052946.08      3197274.99     10052946.08
      3197174.99     10053046.08      3197164.99     10053046.08
      3197144.99     10053026.08      3197094.99     10053026.08
      3197094.99     10053046.08      3197054.99     10053086.08
      3197034.99     10053086.08      3197024.99     10053096.08
      3197004.99     10053096.08      3196984.99     10053116.08
      3196974.99     10053116.08      3196964.99     10053126.08
      3196954.99     10053126.08      3196944.99     10053136.08
      3196884.99     10053136.08      3196864.99     10053116.08
      3196844.99     10053116.08      3196834.99     10053106.08
      3196824.99     10053106.08      3196814.99     10053096.08
      3196804.99     10053096.08      3196734.99     10053026.08
      3196704.99     10053026.08      3196694.99     10053016.08
      3196684.99     10053016.08      3196664.99     10052996.08
      3196654.99     10052996.08      3196604.99     10052946.08
      3196604.99     10052936.08      3196594.99     10052926.08
      3196584.99     10052916.08      3196584.99     10052886.08
      3196574.99     10052876.08      3196574.99     10052866.08
      3196564.99     10052856.08      3196564.99     10052816.08
      3196574.99     10052806.08      3196584.99     10052806.08
      3196604.99     10052786.08      3196614.99     10052786.08
      3196634.99     10052766.08      3196634.99     10052756.08
      3196644.99     10052746.08      3196644.99     10052736.08
      3196654.99     10052726.08      3196654.99     10052716.08
      3196664.99     10052706.08      3196664.99     10052696.08
      3196684.99     10052676.08      3196684.99     10052556.08
      3196704.99     10052536.08      3196704.99     10052456.08
      3196724.99     10052436.08      3196724.99     10052346.08
      3196734.99     10052336.08      3196734.99     10052316.08
      3196744.99     10052306.08      3196744.99     10052266.08
      3196754.99     10052256.08      3196754.99     10052216.08
      3196774.99     10052196.08      3196774.99     10052186.08
      3196784.99     10052176.08      3196784.99     10052166.08
      3196794.99     10052156.08      3196794.99     10052146.08
      3196804.99     10052136.08      3196864.99     10052136.08
      3196874.99     10052126.08      3196884.99     10052126.08
      3196914.99     10052096.08      3196914.99     10052086.08
      3196934.99     10052066.08      3196934.99     10052056.08
      3196994.99     10051996.08      3196994.99     10051986.08
      3197004.99     10051976.08      3197004.99     10051956.08
      3197014.99     10051946.08      3197014.99     10051906.08
      3197004.99     10051896.08      3197004.99     10051866.08