Geom Title=10170204000897
Program Version=4.10
Viewing Rectangle= 249651.830141601 , 256425.90862793 , 4807748.81998291 , 4801678.05440674 

River Reach=10170204000897  ,10170204000897  
Reach XY= 12738 
 256306.77532959 4807076.1295166256305.8493041994807076.46032715
256304.9232788094807076.79107666256303.997314453 4807077.1217041
256303.0711059574807077.45251465256302.145080566 4807077.7833252
256301.2191162114807078.11407471 256300.293090824807078.44470215
256299.366882324 4807078.7755127256298.440917969 4807079.1060791
256297.5148925784807079.43688965256296.588684082 4807079.7677002
256295.6627197274807080.09832764256295.1171264654807080.93347168
256294.5712890634807081.76849365256294.0256958014807082.60369873
256293.479919434 4807083.4387207256292.9343261724807084.27392578
 256292.388488774807085.10888672256291.842895508 4807085.9440918
256291.2971191414807086.77911377256290.7515258794807087.61407471
256290.2056884774807088.44927979256289.6600952154807089.28430176
256289.1143188484807090.11950684256288.5684814454807090.95452881
256288.0228881844807091.78967285256287.4772949224807092.62469482
256286.931518555 4807093.4598999256286.3856811524807094.29492188
256285.8400878914807095.12988281256285.2943115234807095.96508789
256284.7487182624807096.80029297256284.2028808594807097.63531494
256283.6572875984807098.47027588 256283.111511234807099.30548096
256282.5659179694807100.14050293256282.0200805664807100.97570801
256281.4744873054807101.81072998256280.9287109384807102.64587402
256280.383117676  4807103.480896256279.8372802734807104.31610107
256279.2916870124807105.15112305256278.7459106454807105.98608398
256278.2003173834807106.82128906 256277.654479984807107.65631104
256277.1088867194807108.49151611256276.5631103524807109.32647705
256276.0172729494807110.16168213256275.471679688 4807110.9967041
256274.9260864264807111.83190918256274.3803100594807112.66687012
256273.834472656 4807113.5020752256273.2888793954807114.33709717
256272.7431030274807115.17230225256272.1975097664807116.00732422
256271.6516723634807116.84228516256271.1060791024807117.67749023
256270.5603027344807118.51251221256270.0147094734807119.34771729
 256269.468872074807120.18267822256268.923278809 4807121.0178833
256268.3775024414807121.85290527 256267.831909184807122.68811035
256267.2860717774807123.52307129256266.7404785164807124.35827637
256266.1947021484807125.19329834256265.6491088874807126.02832031
256265.1032714844807126.86352539256264.5576782234807127.69848633
256264.0119018554807128.53369141256263.4661254884807129.36871338
256262.9204711914807130.20391846 256262.374877934807131.03887939
256261.8291015634807131.87408447256261.2833251954807132.70910645
256260.7376708984807133.54431152256260.1920776374807134.37927246
 256259.646301274807135.21447754256259.1005249024807136.04949951
256258.5548706054807136.88452148256258.0090942384807137.71972656
256257.463500977 4807138.5546875256256.9177246094807139.38989258
256256.3720703134807140.22491455256255.8262939454807141.06011963
256255.2807006844807141.89508057256254.7349243164807142.73028564
256254.1890869144807143.56530762256253.6434936524807144.40032959
256253.0979003914807145.23547363256252.5521240234807146.07067871
256252.0062866214807146.90570068256251.4606933594807147.74072266
256250.9151000984807148.57592773 256250.369323734807149.41088867
256249.8234863284807150.24609375256249.2778930664807151.08111572
256248.732116699 4807151.9163208256248.1865234384807152.75128174
256247.6406860354807153.58648682256247.0950927734807154.42150879
256246.5493164064807155.25653076256246.003723145 4807156.0916748
256245.4578857424807156.92669678 256244.912292484807157.76190186
256244.3665161134807158.59692383256243.8209228524807159.43212891
256243.2750854494807160.26708984256242.3820800784807160.71368408
256241.4890747074807161.16009521256240.5963134774807161.60668945
256239.7033081054807162.05310059256238.8103027344807162.49951172
256237.9172973634807162.94610596256237.0244750984807163.39251709
256236.1315307624807163.83911133256235.2385253914807164.28552246
 256234.34552002 4807164.7321167256233.4525146484807165.17852783
256232.5595092774807165.62487793256231.6666870124807166.07147217
256230.773681641 4807166.5178833 256229.880676274807166.96447754
256228.9876708984807167.41088867 256228.005920414807167.51531982
256227.0242919924807167.61987305256226.042480469 4807167.7243042
 256225.060729984807167.82867432256224.0789184574807167.93310547
256223.0972900394807168.03747559256222.1154785164807168.14208984
256221.133728027  4807168.246521256220.1519165044807168.35089111
256219.1702880864807168.45532227256218.1884765634807168.55987549
256217.2067260744807168.66430664256216.2250976564807168.76867676
256215.2432861334807168.87310791256214.2614746094807168.97747803
256213.2797241214807169.08209229256212.2980957034807169.18652344
 256211.316284184807169.29089355256210.3344726564807169.39532471
256209.3527221684807169.49987793 256208.371093754807169.60430908
256207.389282227 4807169.7086792256206.4074707034807169.81311035
256205.4257202154807169.91748047256204.4440917974807170.02209473
256203.4622802734807170.12652588256202.480529785  4807170.230896
256201.4987182624807170.33532715256200.5170898444807170.43969727
 256199.535278324807170.54431152256198.5535278324807170.64868164
256197.5718994144807170.75311279256196.5900878914807170.85748291
256195.6082763674807170.96191406256194.6265258794807171.06628418
256193.6448974614807171.17089844256192.6630859384807171.27532959
256191.6812744144807171.37969971256190.7042846684807171.31872559
256189.7274780274807171.25769043256188.7504882814807171.19647217
256187.7736816414807171.13549805256186.7966918954807171.07452393
256185.8198852544807171.01330566256184.8428955084807170.95227051
256183.8659057624807170.89129639256182.8890991214807170.83007813
256181.912109375  4807170.769104256180.9351196294807170.70812988
256179.9583129884807170.64709473256178.9813232424807170.58587646
256178.0045166024807170.52490234256177.0275268554807170.46392822
256176.0504760744807170.40270996256175.073730469 4807170.3416748
256174.0966796884807170.28070068256173.1198730474807170.21948242
256172.142883301 4807170.1585083256171.1658935554807170.09747314
256170.1890869144807170.03649902256169.2120971684807169.97528076
256168.2352905274807169.91430664256167.2583007814807169.85308838
256166.2813110354807169.79211426256165.4558715824807169.23651123
256164.630310059 4807168.6809082256163.8048706054807168.12530518
256162.9793090824807167.56970215256162.1539306644807167.01409912
256161.3283081054807166.45849609256160.5029296884807165.90289307
256159.6773071294807165.34710693 256158.851684574807164.79150391
256158.0263061524807164.23590088256157.2006835944807163.68029785
256156.3753051764807163.12469482256155.549682617 4807162.5690918
256154.7243041994807162.01348877256153.8986816414807161.45788574
256153.0733032234807160.90228271256152.2476806644807160.34649658
256151.4223022464807159.79089355256150.5966796884807159.23529053
 256149.77130127 4807158.6796875256148.9456787114807158.12408447
256148.1203002934807157.56848145256147.2946777344807157.01287842
256146.4692993164807156.45727539256145.6436767584807155.90148926
 256144.818298344807155.34588623256143.992675781 4807154.7902832
256143.1672973634807154.23468018256142.3416748054807153.67907715
256141.5162963874807153.12347412256140.6906738284807152.56768799
 256139.865295414807152.01208496256139.0396728524807151.45648193
256138.2142944344807150.90087891256137.3886718754807150.34527588
256136.5632934574807149.78967285256135.7376708984807149.23413086
 256134.912292484807148.67852783256134.086730957 4807148.1229248
256133.2612915044807147.56707764 256132.435729984807147.01147461
256131.6101074224807146.45587158256130.7847290044807145.90032959
256129.9591064454807145.34472656256129.1337280274807144.78912354
256128.3081054694807144.23352051256127.4827270514807143.67791748
256126.6571044924807143.12231445256125.8317260744807142.56652832
256125.0061035164807142.01092529256124.1868896484807141.44769287
256123.3674926764807140.88427734256122.5480957034807140.32110596
 256121.728698734807139.75769043256120.9093017584807139.19451904
256120.0900878914807138.63110352256119.2706909184807138.06768799
256118.451293945 4807137.5045166256117.6318969734807136.94128418
256116.8126831054807136.37792969256115.9932861334807135.81451416
 256115.173889164807135.25128174256114.3544921884807134.68792725
 256113.535278324807134.12469482256112.715881348 4807133.5612793
256111.8964843754807132.99810791256111.0770874024807132.43469238
 256110.257690434807131.87127686256109.4384765634807131.30810547
 256108.619079594807130.74487305256107.7996826174807130.18151855
256106.9802856454807129.61810303256106.1608886724807129.05487061
256105.3416748054807128.49151611256104.5222778324807127.92828369
256103.702880859 4807127.3649292256102.8834838874807126.80169678
256102.0640869144807126.23828125256101.2448730474807125.67492676
256100.4254760744807125.11169434256099.6060791024807124.54827881
256098.7866821294807123.98510742256097.9675292974807123.42169189
256097.1480712894807122.85852051256096.3286743164807122.29510498
256095.5092773444807121.73168945256094.6901245124807121.16851807
256093.8707275394807120.60528564256093.0513305664807120.04187012
256092.2318725594807119.47851563256091.412475586 4807118.9152832
256090.5933227544807118.35192871256089.7739257814807117.78869629
256088.9545288094807117.22528076256088.1350708014807116.66210938
256087.3159179694807116.09869385256086.4965209964807115.53527832
256085.6771240234807114.97210693256084.8577270514807114.40887451
256084.0385131844807113.84552002256083.2191162114807113.28210449
256082.3997192384807112.71887207256081.5803222664807112.15551758
256080.7609252934807111.59228516256079.9417114264807111.02893066
256079.1223144534807110.46569824 256078.302917484807109.90228271
256077.4835205084807109.33892822256076.664306641 4807108.7756958
256075.8449096684807108.21228027256075.0255126954807107.64910889
256074.2061157234807107.08569336256073.2722778324807106.89892578
256072.3385009774807106.71228027256071.404724121 4807106.5255127
 256070.470886234807106.33868408256069.537109375 4807106.1519165
256068.6030883794807105.96508789256067.6694946294807105.77832031
256066.735473633 4807105.5916748256065.8016967774807105.40490723
256064.8679199224807105.21807861256063.9340820314807105.03131104
256063.0003051764807104.84448242 256062.066528324807104.65789795
 256061.132690434807104.47113037256060.1989135744807104.28430176
256059.2650756844807104.09747314256058.3311157234807103.91070557
256057.3389282234807103.96032715256056.346679688 4807104.0098877
256055.3546752934807104.05969238256054.3624877934807104.10913086
256053.3703002934807104.15887451256052.3781127934807104.20849609
256051.3856811524807104.25811768256050.3936767584807104.30767822
256049.401489258 4807104.3572998256048.4093017584807104.40692139
256047.4171142584807104.45648193256046.4249267584807104.50610352
256045.432678223 4807104.5557251256044.4404907234807104.60528564
256043.4483032234807104.65490723256042.4561157234807104.70452881
256041.4639282234807104.75408936256040.4716796884807104.80371094
256039.4794921884807104.85327148256038.4873046884807104.90307617
256037.4951171884807104.95269775256036.5029296884807105.00231934
256035.5106811524807105.05187988256034.5184936524807105.10150146
256033.5263061524807105.15112305256032.5341186524807105.20068359
256031.5418701174807105.25030518256030.5496826174807105.29992676
256029.557678223 4807105.3494873256028.5654907234807105.39910889
256027.5731201174807105.44873047256026.5808715824807105.49829102
256025.588684082 4807105.5479126256024.5966796884807105.59747314
256023.6044921884807105.64727783256022.6123046884807105.69689941
256021.620117188  4807105.746521256020.6279296884807105.79608154
256019.6356811524807105.84570313256018.6434936524807105.89532471
256017.6513061524807105.94488525256016.6591186524807105.99450684
256015.6668701174807106.04412842256014.6746826174807106.09368896
256013.6824951174807106.14331055256012.6903076174807106.19287109
256011.6981201174807106.24249268256010.7058715824807106.29211426
256009.7850952154807106.57788086256008.864501953 4807106.8637085
256007.943725586 4807107.1494751256007.0228881844807107.43511963
256006.1021118164807107.72088623256005.1812744144807108.00671387
256004.2606811524807108.29248047256003.339904785  4807108.578125
256002.419128418 4807108.8638916256001.4984741214807109.14971924
256000.5776977544807109.43548584255999.6569213874807109.72113037
255998.7360839844807110.00689697255997.8154907234807110.29272461
255996.8947143554807110.57849121255995.9738769534807110.86407471
255995.0531005864807111.14990234255994.1323242194807111.43572998
255993.2117309574807111.72149658255992.2908935554807112.00708008
255991.3701171884807112.29290771255990.4492797854807112.57867432
255989.5286865234807112.86450195255988.6079101564807113.15008545
255987.6870727544807113.43591309 255986.851684574807113.95812988
255986.0161132814807114.48028564255985.1804809574807115.00250244
255984.3450927734807115.52471924255983.509521484  4807116.046875
 255982.67388916 4807116.5690918255981.8385009774807117.09130859
255981.0029296884807117.61352539255980.1674804694807118.13568115
 255979.331909184807118.65789795255978.4962768554807119.18011475
255977.6608886724807119.70227051255976.825317383 4807120.2244873
255975.989685059 4807120.7467041255975.154296875 4807121.2689209
255974.3187255864807121.79107666255973.4832763674807122.31329346
255972.6477050784807122.83551025255971.8120727544807123.35772705
 255970.976684574807123.87988281255970.1411132814807124.40209961
255969.3054809574807124.92431641255968.4700927734807125.44647217
255967.6345214844807125.96868896 255966.798889164807126.49090576
255965.9635009774807127.01312256255965.1279296884807127.53527832
255964.2924804694807128.05749512 255963.456909184807128.57971191
255962.6212768554807129.10192871255961.7858886724807129.62408447
255960.9503173834807130.14630127255960.1146850594807130.66851807
255959.2792968754807131.19067383255958.4437255864807131.71289063
255957.6082763674807132.23510742255956.7727050784807132.75732422
255955.9370727544807133.27947998255955.061279297 4807133.7175293
 255954.185485844807134.15527344255953.3095092774807134.59332275
 255952.433715824807135.03131104255951.5576782234807135.46929932
255950.6818847664807135.90710449255949.8060913094807136.34509277
255948.9302978524807136.78308105255948.0543212894807137.22088623
255947.1785278324807137.65887451 255946.302673344807138.09692383
255945.426879883  4807138.534729 255944.550903324807138.97271729
255943.6751098634807139.41070557255942.7990722664807139.84869385
255941.9232788094807140.28649902255941.047485352 4807140.7244873
255940.1716918954807141.16247559255939.2957153324807141.60028076
255938.4199218754807142.03833008255937.5441284184807142.47631836
255936.6682739264807142.91412354255935.7922973634807143.35211182
255934.916503906 4807143.7901001255934.0405273444807144.22790527
255933.1646728524807144.66589355255932.2888793954807145.10388184
255931.4130859384807145.54168701255930.5371093754807145.97967529
255929.5603027344807146.07128906255928.5833129884807146.16290283
255927.606323242 4807146.2545166255926.6295166024807146.34613037
255925.6525268554807146.43768311255924.6754760744807146.52929688
255923.6987304694807146.62091064255922.7216796884807146.71228027
255921.7448730474807146.80407715255920.7678833014807146.89550781
 255919.791076664807146.98712158255918.8140869144807147.07867432
255917.8370971684807147.17028809255916.8602905274807147.26190186
255915.8833007814807147.35351563255914.9063110354807147.44512939
255913.9295043954807147.53668213255912.952514648 4807147.6282959
255911.9755249024807147.71990967255910.9987182624807147.81152344
255910.0217285164807147.90307617255909.0449218754807147.99468994
255908.0678710944807148.08612061255907.0908813484807148.17767334
255906.1140747074807148.26928711255905.1370849614807148.36090088
255904.1851196294807148.07208252255903.2330932624807147.78308105
255902.2808837894807147.49407959255901.3289184574807147.20507813
 255900.376892094807146.91607666255899.424682617 4807146.6270752
255898.4727172854807146.33807373255897.5206909184807146.04907227
255896.5687255864807145.76031494255895.6165161134807145.47131348
255894.6644897464807145.18231201255893.7125244144807144.89331055
255892.7604980474807144.60430908255891.8082885744807144.31530762
255890.8563232424807144.02648926255889.9042968754807143.73748779
255888.9520874024807143.44848633 255888.000122074807143.15948486
255887.048095703 4807142.8704834255886.0961303714807142.58148193
255885.1439208984807142.29248047255884.1918945314807142.00372314
255883.2399291994807141.71472168255882.2879028324807141.42572021
255881.3356933594807141.13671875255880.3837280274807140.84771729
 255879.431701664807140.55871582255878.4796752934807140.26989746
255877.527526855  4807139.980896255876.5755004884807139.69189453
255875.6234741214807139.40289307255874.671325684 4807139.1138916
255874.0438842774807138.42492676255873.4165039064807137.73590088
255872.788879395  4807137.046875255872.1614990234807136.35791016
255871.5338745124807135.66888428255870.9064941414807134.97991943
255870.2789306644807134.29089355255869.6514892584807133.60192871
255869.0241088874807132.91290283255868.3964843754807132.22387695
255867.9072875984807131.36047363255867.4179077154807130.49688721
255866.9285278324807129.63330078 255866.439270024807128.76989746
255865.9498901374807127.90631104255865.4606933594807127.04290771
255864.9713134774807126.17932129255864.4818725594807125.31567383
255863.9926757814807124.45227051255863.5034790044807123.58868408
255863.0140991214807122.72528076255862.5247192384807121.86169434
255862.0355224614807120.99829102255861.5460815434807120.13470459
255861.0568847664807119.27111816255860.5675048834807118.40771484
   255860.0781254807117.54412842255859.588928223 4807116.6807251
255859.0994873054807115.81707764255858.6096801764807114.95007324
255858.1198730474807114.08331299255857.6303100594807113.21630859
 255857.14050293 4807112.3494873255856.6506958014807111.48248291
255856.1608886724807110.61547852255855.6710815434807109.74847412
255855.1815185554807108.88171387255854.6917114264807108.01470947
255854.2019042974807107.14770508255853.7120971684807106.28088379
255853.2224731454807105.41387939255852.732727051  4807104.546875
255852.2429199224807103.68011475255851.7531127934807102.81311035
255851.2633056644807101.94610596255850.7736816414807101.07928467
255850.2838745124807100.21228027255849.7941284184807099.34527588
255849.3043212894807098.47851563 255848.814514164807097.61151123
255848.3247070314807096.74450684255847.8350830084807095.87768555
255847.3452758794807095.01068115255846.8555297854807094.14367676
255846.365722656 4807093.2769165255845.8759155274807092.40991211
255845.3862915044807091.54290771255844.8964843754807090.67608643
255844.4066772464807089.80908203255843.9168701174807088.94207764
255843.4271240234807088.07531738     255842.93754807087.20831299
255842.4476928714807086.34130859255841.957885742 4807085.4744873
255841.4680786134807084.60748291255840.9782714844807083.74047852
255840.4885253914807082.87347412255839.9989013674807082.00671387
255839.5090942384807081.13970947255839.0192871094807080.27288818
 255838.529479984807079.40588379255838.0396728524807078.53887939
255837.550109863  4807077.671875255837.0603027344807076.80511475
255836.5704956054807075.93811035255836.0806884774807075.07128906
255835.5908813484807074.20428467255835.1010742194807073.33728027
 255834.611511234807072.47027588255834.1217041024807071.60351563
255833.6318969734807070.73651123255833.1420898444807069.86968994
255832.6522827154807069.00268555255832.1627197274807068.13568115
255831.6729125984807067.26867676255831.183105469 4807066.4019165
 255830.693298344807065.53491211255830.2036743164807064.66790771
255829.7139282234807063.80108643255829.2241210944807062.93408203
255828.7343139654807062.06707764255828.2445068364807061.20031738
255827.7548828134807060.33331299255827.2650756844807059.46630859
 255826.77532959 4807058.5994873255826.2855224614807057.73248291
255825.7957153324807056.86547852255825.3059082034807055.99871826
 255824.816284184807055.13171387255824.3264770514807054.26470947
255823.8367309574807053.39788818255823.3469238284807052.53088379
255822.8571166994807051.66387939255822.3674926764807050.79711914
255821.8776855474807049.93011475255821.3878784184807049.06311035
255820.8980712894807048.19628906255820.4083251954807047.32928467
255819.9187011724807046.46228027255819.4288940434807045.59527588
255818.9390869144807044.72851563255818.4492797854807043.86151123
255817.9594726564807042.99468994255817.4697265634807042.12768555
255816.9801025394807041.26068115 255816.490295414807040.39367676
255816.000488281 4807039.5269165255815.5106811524807038.65991211
255815.0208740234807037.79309082255814.5313110354807036.92608643
255814.0415039064807036.05908203255813.5516967774807035.19207764
255813.0618896484807034.32531738 255812.572082524807033.45831299
255812.082275391 4807032.5914917255811.592712402 4807031.7244873
255811.1029052734807030.85748291255810.6130981454807029.99047852
255810.1232910164807029.12371826255809.6334838874807028.25671387
255809.1439208984807027.38970947 255808.654113774807026.52288818
255808.1643066414807025.65588379255807.6744995124807024.78887939
255807.1848754884807023.92211914255806.6951293954807023.05511475
255806.2053222664807022.18811035255805.7155151374807021.32128906
255805.2257080084807020.45428467255804.7360839844807019.58728027
255804.2462768554807018.72052002255803.7565307624807017.85351563
255803.2667236334807016.98651123255802.7769165044807016.11968994
255802.2871093754807015.25268555255801.7974853524807014.38568115
255801.307678223 4807013.5189209255800.817871094 4807012.6519165
   255800.3281254807011.78491211255799.8383178714807010.91809082
255799.3486938484807010.05108643255798.8588867194807009.18408203
 255798.369079594807008.31732178255797.8792724614807007.45031738
255797.3895263674807006.58331299255796.899902344 4807005.7164917
255796.410095215 4807004.8494873255795.9202880864807003.98248291
255795.4304809574807003.11547852255794.9406738284807002.24871826
255794.4509277344807001.38171387255793.9613037114807000.51489258
255793.4714965824806999.64788818255792.9816894534806998.78088379
255792.4918823244806997.91387939255792.0020751954806997.04711914
255791.5125122074806996.18011475255791.0227050784806995.31329346
255790.5328979494806994.44628906 255790.043090824806993.57928467
255789.7583007814806992.64312744255789.4733276374806991.70690918
255789.1882934574806990.77069092255788.9033203134806989.83447266
255788.6185302734806988.89831543255788.3334960944806987.96209717
255788.0485229494806987.02587891255787.7636718754806986.08947754
 255787.478698734806985.15332031255787.1937255864806984.21710205
255786.9088745124806983.28088379255786.6239013674806982.34472656
255786.338928223 4806981.4085083255786.0540771484806980.47229004
255785.7691040044806979.53607178255785.4841308594806978.59991455
255785.1992797854806977.66369629255784.9143066414806976.72747803
255784.6292724614806975.79107666255784.3442993164806974.85491943
255784.0595092774806973.91870117255783.7744750984806972.98248291
255783.4895019534806972.04632568255783.2047119144806971.11010742
255782.9196777344806970.17388916 255782.634704594806969.23748779
 255782.349670414806968.30133057255782.064880371 4806967.3651123
255781.7799072274806966.42889404255781.4948730474806965.49267578
255781.2100830084806964.55651855255780.9251098634806963.62030029
255780.6400756844806962.68408203255780.355285645 4806961.7479248
  255780.07031254806960.81170654 255779.785278324806959.87548828
255779.5004882814806958.93908691255779.2155151374806958.00292969
255778.9304809574806957.06671143255778.2954711914806956.37890625
255777.6605224614806955.69091797255777.0255126954806955.00292969
 255776.390502934806954.31512451255775.755493164 4806953.6270752
255775.1204833984806952.93927002255774.4854736334806952.25128174
255773.8505249024806951.56347656255773.2155151374806950.87548828
255772.580505371    4806950.1875255771.9454956054806949.49969482
 255771.310485844806948.81170654255770.6754760744806948.12390137
255770.0405273444806947.43591309255769.405517578 4806946.7479248
255768.5283203134806946.37188721255767.6508789064806945.99609375
255766.7736816414806945.62011719 255765.896301274806945.24407959
255765.0191040044806944.86810303255764.1417236334806944.49212646
255763.2642822274806944.11608887255762.387084961 4806943.7401123
255761.5098876954806943.36407471255760.6325073244806942.98809814
255759.7551269534806942.61212158255758.8779296884806942.23608398
255758.0004882814806941.86029053255757.1232910164806941.48431396
255756.2459106454806941.10827637255755.368713379 4806940.7322998
255754.4912719734806940.35632324255753.6140747074806939.98028564
255752.7366943364806939.60430908255751.7626953134806939.46008301
255750.7885131844806939.31567383 255749.814270024806939.17132568
255748.8400878914806939.02709961255747.8660888674806938.88269043
255746.8919067384806938.73828125255745.9177246094806938.59411621
255744.9434814454806938.44970703255743.9694824224806938.30548096
255742.9953002934806938.16107178255742.0211181644806938.01672363
   255741.0468754806937.87249756255740.0728759774806937.72808838
255739.098693848 4806937.5836792255738.1245117194806937.43951416
 255737.150329594806937.29510498255736.176330566 4806937.1506958
255735.2020874024806937.00653076255734.2279052734806936.86212158
 255733.25390625 4806936.7177124255732.2797241214806936.57348633
255731.3054809574806936.42907715255730.325073242 4806936.5692749
255729.3444824224806936.70928955255728.364074707 4806936.8493042
255727.3834838874806936.98950195255726.402893066 4806937.1295166
255725.4224853524806937.26971436255724.441894531  4806937.409729
255723.4614868164806937.54968262255722.4808959964806937.68988037
255721.5003051764806937.82989502255720.5198974614806937.97009277
255719.5393066414806938.11010742255718.5588989264806938.25030518
255717.5783081054806938.39031982255716.5979003914806938.53027344
 255715.617309574806938.67047119 255714.636718754806938.81048584
 255713.904113774806939.42108154255713.1713256844806940.03167725
255712.4387207034806940.64227295255711.7058715824806941.25268555
255710.9733276374806941.86328125255710.2404785164806942.47387695
255709.5078735354806943.08447266255708.7750854494806943.69512939
255708.042480469 4806944.3057251255707.309875488 4806944.9163208
255706.577087402 4806945.5269165255705.844482422 4806946.1373291
255705.111694336 4806946.7479248255704.6522827154806947.58349609
255704.1926879884806948.41912842255703.733093262 4806949.2545166
255703.2734985354806950.09008789255702.8140869144806950.92572021
255702.354492188 4806951.7612915255701.8948974614806952.59667969
255701.4353027344806953.43231201255700.975891113 4806954.2678833
255700.5162963874806955.10327148 255700.056701664806955.93890381
255699.597106934 4806956.7744751255699.1376953134806957.60992432
255698.6781005864806958.44549561255698.2185058594806959.28088379
255697.7590942384806960.11651611255697.299499512 4806960.9520874
255696.8399047854806961.78771973255696.3803100594806962.62310791
255696.1768798834806963.57971191255695.9733276374806964.53631592
255695.7697143554806965.49291992 255695.566284184806966.44952393
255695.3626708984806967.40588379255695.1593017584806968.36248779
255694.955688477 4806969.3190918255694.752075195 4806970.2756958
255694.548706055 4806971.2322998255694.3450927734806972.18890381
255694.1414794924806973.14550781255693.9381103524806974.10192871
 255693.734497074806975.05847168255693.5308837894806976.01507568
255693.3275146484806976.97167969255693.1239013674806977.92828369
255692.920471191 4806978.8848877255692.716918945 4806979.8414917
 255692.51348877 4806980.7979126255692.309875488 4806981.7545166
255692.1063232424806982.71112061255691.9028930664806983.66772461
255691.6992797854806984.62432861255691.4957275394806985.58068848
255691.2922973634806986.53747559255691.0886840824806987.49389648
255690.8850708014806988.45050049 255690.681701664806989.40710449
255690.478088379 4806990.3637085255690.274719238 4806991.3203125
255690.071105957 4806992.2769165255689.8676757814806993.23327637
255689.6641235354806994.18988037255689.4605102544806995.14648438
255689.2570800784806996.10308838255689.0535278324806997.05969238
255688.8499145514806998.01629639255688.6464843754806998.97290039
255688.4428710944806999.92932129255688.2589111334807000.90710449
255688.074890137 4807001.8848877255687.890686035 4807002.8626709
255687.7067260744807003.84069824255687.5227050784807004.81848145
255687.3385009774807005.79632568 255687.154479984807006.77410889
 255686.970520024807007.75189209255686.7863159184807008.72967529
255686.6022949224807009.70751953255686.4182739264807010.68530273
255686.2341308594807011.66308594255686.0501098634807012.64093018
255685.8660888674807013.61871338255685.6818847664807014.59649658
255685.4979248054807015.57427979255685.3139038094807016.55212402
255685.1298828134807017.52990723255684.9456787114807018.50787354
 255684.761718754807019.48547363255684.5776977544807020.46350098
255684.3936767584807021.44128418255684.2094726564807022.41912842
255684.0255126954807023.39691162255683.8414916994807024.37469482
255683.6572875984807025.35247803255683.4733276374807026.33032227
255683.2893066414807027.30810547255683.1051025394807028.28588867
255682.9210815434807029.26367188255682.7371215824807030.24151611
 255682.552917484807031.21929932255682.3688964844807032.19708252
255682.1848754884807033.17492676255682.0006713874807034.15270996
255681.8167114264807035.13067627 255681.632690434807036.10827637
255681.4484863284807037.08630371255681.2645263674807038.06408691
255681.0805053714807039.04187012255680.8964843754807040.01971436
255680.7122802734807040.99749756255680.5283203134807041.97528076
255680.344299316  4807042.953125 255680.16027832 4807043.9309082
255679.9760742194807044.90869141255679.7921142584807045.88647461