Flow Title=10170204000897
Program Version=4.10
Number of Profiles= 8
Profile Names=DSCH_50PCT,DSCH_20PCT,DSCH_10PCT,DSCH_4PCT,DSCH_2PCT,DSCH_1PCT,DSCH_05PCT,DSCH_02PCT
River Rch & RM=10170204000897,10170204000897,12359.04
   5.245  10.778  15.283  22.035  27.403  33.045  39.263  47.868
River Rch & RM=10170204000897,10170204000897,12135.3
   5.245  10.778  15.283  22.035  27.403  33.045  39.263  47.868
River Rch & RM=10170204000897,10170204000897,11962.49
   5.932  12.139  17.212  24.762  30.683  37.000  43.754  53.344
River Rch & RM=10170204000897,10170204000897,11768.0
   5.932  12.139  17.212  24.762  30.683  37.000  43.754  53.344
River Rch & RM=10170204000897,10170204000897,11567.17
   5.932  12.139  17.212  24.762  30.683  37.000  43.754  53.344
River Rch & RM=10170204000897,10170204000897,11364.5
   5.932  12.139  17.212  24.762  30.683  37.000  48.648  59.311
River Rch & RM=10170204000897,10170204000897,11166.16
   6.634  13.521  19.172  27.528  34.093  41.113  48.648  59.311
River Rch & RM=10170204000897,10170204000897,10963.33
   6.634  13.521  19.172  27.528  34.093  41.113  48.648  59.311
River Rch & RM=10170204000897,10170204000897,10763.02
   6.634  13.521  19.172  27.528  34.093  41.113  48.648  59.311
River Rch & RM=10170204000897,10170204000897,10560.56
   6.634  13.521  19.172  27.528  34.093  41.113  48.648  59.311
River Rch & RM=10170204000897,10170204000897,10361.63
   8.945  18.042  25.582  36.540  45.018  54.287  63.901  77.906
River Rch & RM=10170204000897,10170204000897,10167.03
  10.250  20.576  29.174  41.571  51.095  61.614  72.353  88.211
River Rch & RM=10170204000897,10170204000897,9966.79
  10.250  20.576  29.174  41.571  51.095  61.614  72.353  88.211
River Rch & RM=10170204000897,10170204000897,9764.66
  10.250  20.576  29.174  41.571  51.095  61.614  72.353  88.211
River Rch & RM=10170204000897,10170204000897,9564.08
  10.250  20.576  29.174  41.571  51.095  61.614  72.353  88.211
River Rch & RM=10170204000897,10170204000897,9362.25
  11.880  26.076  36.973  52.457  64.197  77.414  90.217 109.991
River Rch & RM=10170204000897,10170204000897,9139.52
  13.301  26.076  36.973  52.457  64.197  77.414  90.217 109.991
River Rch & RM=10170204000897,10170204000897,8962.52
  13.301  26.076  36.973  52.457  64.197  77.414  90.217 109.991
River Rch & RM=10170204000897,10170204000897,8756.59
  13.301  26.076  36.973  52.457  64.197  77.414  90.217 109.991
River Rch & RM=10170204000897,10170204000897,8562.19
  13.301  26.076  36.973  52.457  64.197  77.414  90.217 109.991
River Rch & RM=10170204000897,10170204000897,8362.98
  13.301  29.312  41.562  58.536  71.491  86.210 100.306 122.290
River Rch & RM=10170204000897,10170204000897,8165.0
  14.792  29.312  41.562  58.536  71.491  86.210 100.306 122.290
River Rch & RM=10170204000897,10170204000897,7961.86
  14.792  29.312  41.562  58.536  71.491  86.210 100.306 122.290
River Rch & RM=10170204000897,10170204000897,7761.16
  14.792  29.312  41.562  58.536  71.491  86.210 100.306 122.290
River Rch & RM=10170204000897,10170204000897,7562.0
  14.792  29.312  41.562  58.536  71.491  86.210 100.306 122.290
River Rch & RM=10170204000897,10170204000897,7369.08
  14.792  29.312  41.562  58.536  71.491  86.210 100.306 122.290
River Rch & RM=10170204000897,10170204000897,7157.86
  14.792  29.312  41.562  58.536  71.491  86.210 111.564 136.016
River Rch & RM=10170204000897,10170204000897,6962.1
  14.792  29.312  41.562  58.536  71.491  86.210 111.564 136.016
River Rch & RM=10170204000897,10170204000897,6747.84
  16.631  32.767  46.460  65.177  79.444  95.800 111.564 136.016
River Rch & RM=10170204000897,10170204000897,6562.43
  16.631  32.767  46.460  65.177  79.444  95.800 111.564 136.016
River Rch & RM=10170204000897,10170204000897,6361.35
  16.631  32.767  46.460  65.177  79.444  95.800 111.564 136.016
River Rch & RM=10170204000897,10170204000897,6161.06
  16.631  32.767  46.460  65.177  79.444  95.800 111.564 136.016
River Rch & RM=10170204000897,10170204000897,5983.12
  16.631  32.767  46.460  65.177  79.444  95.800 111.564 136.016
River Rch & RM=10170204000897,10170204000897,5765.32
  16.631  36.411  51.627  72.806  88.561 106.794 124.112 151.315
River Rch & RM=10170204000897,10170204000897,5579.55
  18.519  36.411  51.627  72.806  88.561 106.794 124.112 151.315
River Rch & RM=10170204000897,10170204000897,5361.98
  18.519  36.411  51.627  72.806  88.561 106.794 124.112 151.315
River Rch & RM=10170204000897,10170204000897,5144.46
  18.519  36.411  51.627  72.806  88.561 106.794 124.112 151.315
River Rch & RM=10170204000897,10170204000897,4840.27
  19.556  38.375  54.412  76.660  93.090 112.255 130.077 158.587
River Rch & RM=10170204000897,10170204000897,4705.4
  19.556  38.375  54.412  76.660  93.090 112.255 130.077 158.587
River Rch & RM=10170204000897,10170204000897,4425.6
  19.556  38.375  54.412  76.660  93.090 112.255 130.077 158.587
River Rch & RM=10170204000897,10170204000897,4243.86
  19.556  38.375  54.412  76.660  93.090 112.255 130.077 158.587
River Rch & RM=10170204000897,10170204000897,4026.48
  19.556  38.375  54.412  76.660  93.090 112.255 130.077 158.587
River Rch & RM=10170204000897,10170204000897,3842.49
  19.556  38.375  54.412  76.660  93.090 112.255 130.077 158.587
River Rch & RM=10170204000897,10170204000897,3642.01
  19.556  38.375  54.412  76.660  93.090 112.255 144.535 176.214
River Rch & RM=10170204000897,10170204000897,3468.68
  19.556  38.375  54.412  76.660 103.437 124.733 144.535 176.214
River Rch & RM=10170204000897,10170204000897,3251.83
  21.885  42.777  60.654  85.285 103.437 124.733 144.535 176.214
River Rch & RM=10170204000897,10170204000897,3035.54
  21.885  42.777  60.654  85.285 103.437 124.733 144.535 176.214
River Rch & RM=10170204000897,10170204000897,2843.84
  21.885  42.777  60.654  85.285 103.437 124.733 144.535 176.214
River Rch & RM=10170204000897,10170204000897,2639.92
  21.885  42.777  60.654  85.285 103.437 124.733 144.535 176.214
River Rch & RM=10170204000897,10170204000897,2465.62
  21.885  42.777  60.654  85.285 103.437 124.733 144.535 176.214
River Rch & RM=10170204000897,10170204000897,2278.66
  21.885  42.777  60.654  85.285 103.437 124.733 144.535 176.214
River Rch & RM=10170204000897,10170204000897,2041.11
  21.885  42.777  60.654  85.285 103.437 124.733 144.535 176.214
River Rch & RM=10170204000897,10170204000897,1814.94
  21.885  42.777  60.654  85.285 103.437 124.733 144.535 176.214
River Rch & RM=10170204000897,10170204000897,1655.06
  21.885  42.777  60.654  85.285 103.437 124.733 144.535 176.214
River Rch & RM=10170204000897,10170204000897,1439.41
  21.885  42.777  60.654  85.285 103.437 124.733 144.535 176.214
River Rch & RM=10170204000897,10170204000897,1241.29
  21.885  42.777  60.654  85.285 103.437 124.733 144.535 176.214
River Rch & RM=10170204000897,10170204000897,1042.65
  21.885  42.777  60.654  85.285 103.437 124.733 144.535 176.214
River Rch & RM=10170204000897,10170204000897,841.31
  21.885  42.777  60.654  85.285 103.437 124.733 144.535 176.214
River Rch & RM=10170204000897,10170204000897,640.24
  21.885  42.777  60.654  85.285 103.437 124.733 144.535 176.214
River Rch & RM=10170204000897,10170204000897,443.02
  21.885  42.777  60.654  85.285 103.437 124.733 144.535 176.214
River Rch & RM=10170204000897,10170204000897,236.31
  21.885  42.777  60.654  85.285 103.437 124.733 144.535 176.214
River Rch & RM=10170204000897,10170204000897,38.37
  21.885  42.777  60.654  85.285 103.437 124.733 144.535 176.214


Boundary for River Rch & Prof#=10170204000897,10170204000897, 1 
Up Type= 0 
Dn Type= 3 
Dn Slope=0.0001
Boundary for River Rch & Prof#=10170204000897,10170204000897, 2 
Up Type= 0 
Dn Type= 3 
Dn Slope=0.0001
Boundary for River Rch & Prof#=10170204000897,10170204000897, 3 
Up Type= 0 
Dn Type= 3 
Dn Slope=0.0001
Boundary for River Rch & Prof#=10170204000897,10170204000897, 4 
Up Type= 0 
Dn Type= 3 
Dn Slope=0.0001
Boundary for River Rch & Prof#=10170204000897,10170204000897, 5 
Up Type= 0 
Dn Type= 3 
Dn Slope=0.0001
Boundary for River Rch & Prof#=10170204000897,10170204000897, 6 
Up Type= 0 
Dn Type= 3 
Dn Slope=0.0001
Boundary for River Rch & Prof#=10170204000897,10170204000897, 7 
Up Type= 0 
Dn Type= 3 
Dn Slope=0.0001
Boundary for River Rch & Prof#=10170204000897,10170204000897, 8 
Up Type= 0 
Dn Type= 3 
Dn Slope=0.0001
